Sf5b3/nUPMUVJHf1oE6B3f5hvus8+U1uNgWjg7OFu/bT7IjPiGs/o1dN9avRREbzgbfszMmGKPlKMTteeZ9bQlT1OWBSyU6u/tDb0MqlSmDKs5cJHmkcu654i0Ojx+26h3pfP60WNQqRue0uSI92QzOV0W8LEsaUun47eCQDSbS5AChjBN7u7oqKPz/48IF2cm6WUVguQpMjzjgdn+gzyJoIFkM0OIP+zhR5Sjo1WuPiM4we5xHDf3J+RaEGVbabYvRhHNcPOZC7ekMAtvPWIzFFLp+bMiu8QdCbg16sEU8CwfI135eIcxgQZtMGkXyZqA3qYA3O1V7sHFF4AHKo8fM4mohWhUE4IdXBJrHD6BYrGQQkJU+x/Jm6j9YWyxJv1DBGN//tW6WiG8HAldumRKues0wQcRYrbnp8Q1QpcGogjNeUXXWW9J5hyViJP52gfc4Xg+wazFMRemczSoGrSi94HYJMExPShxKIrzQXBb86hR2fT+y+GQJGhiVuOOHlZtAv0ABHcaehbiwg3r+lRk3ikBo6iWkxtyzZDuOAuNHgAOuF5rofhhohDWuEtM9RHOznDvwGPAIYWWy2L2guOxQrP/Iv1P8OIDM2t/rFlIhz38pnsax2R1aedxWuJFP8XVwLbDu7XpfO8qqSyhZBv4k3tLUhh1XMT3DH7APVw9v2oLYZkT9krFkhSh73ItzrdmX+h5gZvsKGELRbilavvN++x0TTHL73MkvneVTI7ZOIjHkIWyND+VR3a90Luxyjvx3hb35cn5P5CD/+B6R76CoWNRbuwiDyuFUnGElkysd2xuKCK4KKfXC9hXDoxaFsV8YsO3zFDcy7iU0kC0rLYDqjz5F2uoUrRWu4qM5iYuCUZzIGyuIMnEnfw44AolJYpWcwMc9wTOYRKSHvPRBZrJXVl0VKarPH/6fKLpJdxYoEfZ9J3x7tWNWp6jKtLud8T/0ZxmVywAe5w5BvALixizQlai9uJCqJzhdScNLbnZ4A+PQ/LZVrrReXmflSVJqCg5ci7Uce4mP7RpmiMjhB1nlAafn4EF8ufUgvNkMmZxulZIQGZoXMSfQvEq0Vtv94yDptvFbR5Aewgkx6lyYNljbT06jIOZkYASlIBXRy9++N1kff2DUUksgSxNzYvvHgyryC99KLhZAjHd+ob37Pf1x9LxmjArdoYWoJJrcALUlhWhvddXeRjMe4jiy8TtSyvtZ0a876QORWM+CWT84+GQWDy+WLB+FXNgV//QdgXXdoAwMRlQ7qKDguUDOKnhJzjC8NIwJjGsLiZMkr5pHsE1YCTX8gKb9mhhcvVU0NWxdMG41UdylJ7huKwABecTyFrTDrKJwiovnQ/H0upFdi1N7xB4hSwpI1aZahI25LuqlbLJKKglkB/G8tx2oZ1LwoNC+CCDeTE1gw+F83uCtzB8h2TRkVP/HQR+fm96skjnvLF9p5O68u8ZLo9ZUuk8glSuQuppAm9v8BYQ/aFiTCcN6TQEPNzWM/hlhulHdYbfpl3OQgx3EoF21FgHgVkmMonzQAs2ytv5sT8np0ToIi/2q0O7wZ0wDl3RB9zcyuM0bvnAl+P+TYPgBhIZzO67irRG311qZnJd90g1gU+cntSDaBw4TSjKD+kZUhOgSq7f25qFRVFxDNDFQTcU9tnL8QyUcfsdqwciuTv/xy9ZPs1f6kKu4uILM2K7W22jb0DtdWuGiG9H2ojxpZY2WGuwrjRWMPCiSPrw7fD+yBsysCcW4037NS/ty9ZJl6SRhhLONgtelcKWbQytJsimQ0f3yMHKu1p+KKP3QKxqzwDAXLLnfddK60I2ffTriQ85ti75FgULcRJwoCf7bL1wrDGcl2EYFJtJgTnym13GzCQ6zfnSiseOtV0+YaJ1NJ49LWIdBZ+fK12RZ6ZWQ4u1hICea1/CQZf2oLALlYSgV50K7Ivpt/skG7l3HHAfMb/auNjoOyUtyhdNZCORUrPI9TfBmteUCdsoD7mN04YlcxZ5CRnM2G0C1J1DjBXFOyNVg4F+iV2o7zXrfPvQG/gS+RrrwQ2ETBtRRXxJ7Gsq+Agm9kJkamyvnmSJ10KOJboUEySmWXcAuKA0msJFMnhrKI0M1ubrc5qPTH5tCYWsZ3aSiy+2PKvCzsfBEYh8s9+OxN8HPPE5Qq6iaKIqLAbrm1EcfDlI8WiAu3WMuNfEJEKxC0CS6uRjBYjpt7TjfN3fcwA0JqohZFNgr8FBSMUDzOiIbviPgggg7cM6wj2Osj6NxsgJdSL8maXetlqWNKHlpIZqKOdhw2awB/0cdXFtjhe7P44Hvruu2kkYQqJYgARI33yjWyklN8HHY2WPVy2TLbl7hJJEIPr15gWVUAar6YBdo4lWnHTnorVYWvIOWF+LGSTrEoi2eQCGUQ3Bfq3wn/1oSus2h+oG1falxYFcffG+o5m1i22RdaVrMLIKyW50XGTIpOHkIbo+zppPmAc2IpFJerAIbBmWtTUWV0LVe5fI7Ers+OCFKqmOJUZnvjECAwjKngZxmCs2W33DtSQctdsds4wQMiO0grWuLGyl+CQpk2kDwCC9uCx82OwK5+m84ibAwS0c7nuorZTK0UeCYuAKm91aMseIDujR/5wQFbpvXfIis7v6lTWq4RjjLz0wpVDWUcG2EMIVkjMMLrGt6J5IajVP25FX+YSf4yRwxp1d8QrRna6mJRHO/yc+lphAqSAzSzU9vQwyF0SAYwmGyZZgLanJWp99BRCiZwFK1WaCKYSJI5Hnt+J2UE/Yb/8CartilzyY+dpMrv3IAp8RibmK5ac+wwW6NBm0Tgi0Drxg/qYAfgOXjNT09LG1+pOmZj5rtGoag/PI4b4FtffnOmemPVylZ41fwlpC33ar3PXMgDqSp3KbyHeQq4uf80dQ8HdYn7RmIsNleO9FjtSodPPrZwxrJj/LtOy1/5q7vt3KwcjGWABeXyPL4XrJdKUMSXbP2+4bhGqgt2/hr4ZozjlZBAcHp21m9OFukC6xCY0ZtrZemELdEhwCR+tBBcaqhU4LsLjy2Mhs1YT97g1Xr38y6rRY1DYfkDWsOM0LiA7jTNGhhebsquMMAAlwL9+NSLY5rZVJ2V1lERXI9uF5PaAn3Bm66v877eTEd4MWIORLJKvU6JiEpyc3hOcWqIGcJWMMPnqsrQEZWMgpeLoNnpEHsmPcsgErS6PPdBTpWpHwAORkYauDO6oKAFevxuRXP6WsKFPxK6jeNkZA3DM1ZtnT0tXQJyur4u80i0TFZi94bkUuiLT4LCn/aN1yXUkt7fNWduuZ36ULWmKhop2R6SybRcrxZIhE6OFg4OsfHUx/FCp/5tQt7pk5wSi6ILphXebmqU06qLLfKAaLxC6Agb1QhV2BjuST7BM5l8bEqjCT0LJimBvXM8+iB0xV334uA7uhLulrV38bWYGxJKaPbE8pmiQP+lyUVDIxOC4/T4i7+rXGYQDX7pFQp3y7SW1kuQwvleekS7HpCZ+TmQJwjO9IEmN7PQ0GBTbzxvrmxjOgKqqDG8dGL5nKRi/xvIKJr3RYIB/7E4fqgJ6gN7QLHZHrZX/SCLHrs6m7c/Bm1KcQfFrNVMUSOPqdhNdt+lUUDfmcSzCns8lX9K8ZECC2QOXmdvvNQwt+yZAjDq+sSmG0ndiv6qHfBAPcQ8wg4jQplNo83DwsXc4H/PSG0Ai5FliLeJDGrgx0VDkf5oFWmqk2tKWGQuR4DpxLUQQhYbqB5zHj8tVvi3DqgvwMECwnEejRF9Zx5F0nzaLfjWtsmzGa+sat/fAAiNZhCJwisEzkb+hrwG7vgSVMauktlDInnSVxTCo82qWqo3IJmszmzYa5VAFmNmPH0kmmkaFTvu0Bs+i4NKiaQBXaEgqx44eSx7b5z63SO0mjYdnQVJvQDh+rrohuc1SkBwqkET+Jcg0osmMQCTDZgD28SJxfYpwO2YtXobiv1ksjA2XdJ9b/gKhRUVIFmthPtDNXMqP3R9VsCftkLi7QY5FxGFUXITz49mJP7MnVmQdt2njHqa6eeD2MDmRPACxrTo2b6tkdcn6XtpGNzVnxyRmsGZfxbyfUDX4iUJzapGbX1azPpvV0B+/SZZbq1dqzzJSPll247ZofiN6cU1yQ9u/GZB4e8zEJ5FubUIyHN0HBAiChLTFO9Wx3k8A+0V3hwt/f0A/mrcufJg67Z6un8irBJNb+pY0ByjtRlby3Ud4NJiOCEpJOxyb2C92xVxzcORtuLWEFJh6QTFfWPp6wTyNF3hD0R8G36qVPL2kvbJBvY8UNu8ZLOTJrmW++cF7PugKKGoQmYX7sDO4QOnBs5j4F2LYYhZp+mAwry3wqlxFnasZy1Xz3LkcVbau/Lr68q4cHKynbOw+LYkDEhQl8o1Hw49dmpG0Zan1DHdlGwgfo+1AiBeSXDD3+jvIoYTeGQfAwhoXgjV3X90klpXKA1zrlG0YPobWGzfiggsCnumYegsH/84RN9qVXsuY0QU/lv3Y4r4Q+WWWjy9Ib3tzzh56gAXDufuwCGzLe3rsBw7TWOwzIoyGBHMYimAIru8tKW4AtOwhk6tTUXUBq3fqorr/WJ2mlw3ZvdE8sTTPdfGaE3ucsFPD8FGm3p6tXzMELY9+vsDvFC1BycWfxhhif6gypQaNTqQuOtt6MJxT2ABSHf8uJMoQ3eVMLoK4qK5yJ5obuZjZhenRd1KbapFfbreOSFzk+n3Qv1xLnMVumASgPV4FnLl5yCGE5Qc7cwBHpO0NGMpq8R1NcshAn02AKUC81I7T8ah1Xxpt32AvaKG+E1xDfeWjTl5pyO4esnWTDbgC+rMwv7WYeHiOfBMjOTF3BOfUyVOmfbPjFCdcFm2tJSSdHULZhnXWoz4Guhp1rIXgYySHxfLy1sTzbUIGq7kNu4S1fWFSvas5nM7k3FWHHMyGIoXD3t3yoSC86RJ2RgHoqOGFxU6LxXkc0Lu8PyzF6E6t//JPCiPAZPBmt9EhR6CAw7gfJul+95k/Qq2gO20FbaiB85Y6ycWCXFmFHwYAo51AMehNVo9l2zs5i+2BWe9x8KeQauMwRZP76/8S+v91s0bEq0wI5VOysfEEUdyvfEafw1IqoP59I594e9agfHRZDXSfD/wuyqP2ZK2FaO4bKICmyww4zM6ElRfO9jOy326m9a518Mr58PGHuQPW8lfVf8K8dJYE2a7Ue4Vli6ZcBzXaRfkzeWwODiOd+oOkKAo+S/eRyujZr3oykQxIApYk9XeEF76cCjLsvKYRoaEozErw1SqEl9vWTknmo72XYWA97ihsAL1umXm+YOY06vZLYXElFoxmYF4p2RDbZkLOYPsDSPowBf086iatbmE7uCWoxj1fqXpT7UkXK4jSsqOVU198OS2FFCMT1M6Z56lAgQds9F1r28bjklqjilbZaxUmhjQqva52BxGV7yqB3MhstZQjKL3onnFIZQn1u8uyyY+QhiDdN7PzKMb3NcCG/tKdVfdxPT7mT8eXKykimHPr9iZ3N9aHFyaSD+RgLH+d8bgqyeZhzIwtHBGFc/663NeqY8snvqz2vOs0kJsLSypTu6Xk4uc4kiGCt8oeoUKILPqGDpTCVJ2754rREA+tdAdZVEEq+QKM74BxMKl+EX3auHlYg0j8A/kXlbWdnEdc07nHlM74TPLo1ZUgYSdzG5wWanN9m5RZXmcKlABR4K/BOoSLnbbilY5EPN6JQbuNAZZxB+lOCHFAcyBEI+yc5Whg8OqJIVyc6nxs0DaT4tE8yXjt/NEHRKdUC34FI+jDCTmI0LkWyauyo+WOJTmkFCSSUtexfK5d7nhKeaIdGFt7X+XBMorlfX9x1GbBXSEb3jzQqaThVoqXE//MyyD4r9NYwkQ+rw0+vbnZgpcPQvHx5daCmGpTl93ARQlnbV+yVO6a0t34GgGvbEPxIMMVPN7M4wpRBclWQfEY1bc+OXdlgixKo2jwHNsMzTj0a3RfsPfwRnwdHltxN7Ubcq5LIAYP4IrqiKkSGi6TLCNgbaDDM+YYDEzdQkyI8QPevgrFquu4D+PbV0rer5NxHJ3tKEAK7eCtBdLPOJ/GAz8puT4b6c2Ye20yPV83K5uVNKAWNhts9VXkrbYWrC69SIsskNzmJ92YqREVKrgpguonwlNDgbyN0rYig1ClfGrgaE1McVAZG0wevXMhOHwW/mNtSMeeewEqFglIYDqqaKNdWmh8LuzK464QYQcc4DGLI7750X7sLYswjdG+aDmWUpzT1e2YhSN7xJvPMYUcpqQmr+RjqDokZQuYnlzGcdu9y3Uj1WMss+UGZcx+S+qT44eOp52ovfbxApiajD2QFWTLmaKaAUFPKqWKz3m7hNiaWF66JPk53uXvvoswD78d3UmzRIqH1yOhqn/PXUzsZIzfrpookyjJWAId9Fj8Qd8wGTt2NjUG8r+jY+PvOX53yWhq785K2NfrP+F2ToGw0K1x5uvYiKXpKDY/kdky1hq/JOBcYeQzgqDdAQrCp7R8Xnd11Q8PDV/oAsTKVRGk2iHuduskD0ikWvxHCx30E81YRLOfkprZoblhmpg6xqXQ2lffnvr88Cqy1BG7hetdgJ85S7hltC4mrmCxWuvZfRwc9xmwjYZXPvptzRgRPQKLGIpa6EfOP17iudsvbuHg0ybLVVw2G/aiJSFVFgMfl7luKwVCEFIXmeX244npJ7532wp9LqCsRHEAGXNU2VU4aVTwtiq8U4ywVn7a5CCFOpFjtgWH6FN7YBc6NHIPYaiY5diZPT1rrTey52CUASAomlpffOLeUjXniUfs4U3Hy9MakBUHGirC6v9/oXu1iGcWvSmqZhXr7rZDVXPVTQxAao8GNCqYd0VIJtOTWO/UgPxtC2oc8QMPQIy17rHAh7CnncVwe4ddzOQJywpVueW0x93vEBZUKTpB0gMDdrEBjhEK1SBrt0bhp2dtReF0FAt3UYp9ipVtr5htoDUUswXnt/NIwBYwOmEWN1J9lYBPZC3kYst9xP9rAPqPzv2ZjUoHgAaKkk7PPSK43FHcjU5WbgUj6tpK1bErkIM+3u08qraWA6+GV4pLZD/W1BR+6f9l9SmmzPNUZmKtpowPZe5rWPEjGX7HTfb09fG4ttsNY2gVlH3lO+2lwWBJ5jAMJJRuTCPKcjgJMCJzqcf6mzv5YnxZZPh1cye5d6eCPk7h71rYfnwSatLtH6lCs+bJ3kpvozI/74BPL+Q8nKrjlgOIGauO04/ilnXEdKy0ncORVZQLkyhvAvhSHXTzt3NWho0jL5RCPiWGdsa0dktaVv4eJfrHFwfD9/Mb0OLvUNob7lkW01mD3UjYSEmPuGtjQwxPVPUi+xzWFHnEHDPyh3PQNYxjvQ7IL3/6DziimwTGFq56lHUJFH5rrFOm29qyhr0GCr6OnudLRnUglF2X6W83oGYsDHAkJOOD1rrb05kbJbXdl6/sOex3YIQCmzxdTyQ4Dg82tdxWS4Ix8z0fES4KCW4J+pytONTiYiIqEdr5PO9mICtdSw0NrA3rgpmL2/f+O83VtC2ee14i1fFvDOS+t/M6uFAeH1nYFXHTf1gSqDEv905W+wAXO02DOkoWLWLI3cwpjIMEn17HYvp2oXVCcE62+fHO9auaUDHaicgcRvPArflTG5HYUaaDs4Z0cWRozfT+vNjKRBTyvYe0GyLPjOeiY+EV12SimH4yHqcrDNsePR53jKzy5GLglIZtmJ1wavX1z93Mj5ZXrhbuK98EASFKEvBPKYuN3lRHOAHbsvTBzx8dmqNTL75NNYRlXaFKdU1ERKTBB/onpzcHGcGQ37/IGB/qBe/lqfGfbfKvEGLTwnWS5yCL0fylh1dLsVJE/FsO+26U1UbGEfGh+NTbzI8G6agW8eYWxhuDsCqXQSS1lkzZaljLAYKmSGPlGFdm2pw23H+FHUhqBS4CBOPP5klZIXug3eFRzXAnBazYEKnjsvWmRC/Sbm3xN+0u949FKqpSX2mjqNybtKFdOM0VOBqC2hs2N8u2BcOvvEvLy9SLHi0MmoCNFZq+d7zyoW58rpyRCEygvqoHogq453V+0hTJzzYVfW10UIrMPi9mWPtd5LMu3Y7pP8POshqmVsgakxNBaAVedip1Z+4+R8XK5NG/yQmppKltSqjje1LGJpwhV/LS7cA1m0GaGTSYujRqg0WaKZdJ+3bTKrxJw2k/rK/kTnagyelU8a1sadH0lmJkmqooPT9ynR7fIf2SakZhE4F4N/cRsn4mhS4aV0F53PGrU6lDzzepeeTyvYxk5wwbw1DqIZ6KXlEA68mokQSa4k3ePNFIdCExyEDcCJ84su+U5Dxu7q5gUSZVLB3s8rG4alAsvNmDkORdeD2UguE9hG1nDAn5rkZRPwSS8patxmrjac4FVmhZJuBgUSZPxYIdW8D8VelIEcEXF4SEVCnr+aGSHC3RyJIo+JCbUsYHIcrLiZHGZpPCVYJz0wVBzx/05R1/N6hbFU7eBTL2N4t+TTFhoO5ED99Paaf8wzX9nIjCSvIcz+S9mJaER9++BqkP4wZMuJyu76QkaIaXdgd7/x/RDjalZ89MTyAdF/PdHA791DuIFkXMZUXR8XHOKx1pOgfVFwcgalKwhSyhZNS5diNK2B6TI53sw9usP5PJagNlvtKbapmMGJjG6wKWif9DBeyCLspFT6Jc4OGSaCAC49O2F9tsAVfwl/eEe/JRIsr1KCVSEnLnh1O4qXw2ZC7wDIlQGhvWCGXwE70MGa83RKktlCAmJ4BYc3JLRqpSzVMeFUxjMbH0SeHdtK4t+9EynNrTl1bSOyuKZM+dv0WMZ5TQ5qMkQm+yaH7FZPMyAnMEKp/DjQaPu8+NZDfJ/w5KQ5DN73Yw9zOG7QjmvhEQ5WcD1paZi1rlf0vhePQgAJLosnSewTPynhvhRcl56z/0eG1GZVVIoENXKHQY3szCgo9oC/rUxq/+R+G/mHX2L0mStB2TEBdQSLrLafDlwlWBKUQggqzXooqKVbT7+Wr1/nyRDYNHpgyyB9hjFoWRDcB0PkrYdDFCbtwXt4lTSCcDgXVFwgm5z6ILZ8AZgo32Qyvh7tm+97H0dUtuoebXIaIB0EVUCcKxRcUIchmn5GwTY3jLRUcypgv4aXGvmXAzURFZmGO9KzFpHlN7yH4zAY1ZHnOnAfGQJ6/rMMom5xS91NM2rKcnBhX156ynWX0fs2CiE6MTtdA6s7Hp7dWODVbt+h/d6/gh/wu+c3lzQDiLFKZQCHDC1jtcTCRulTpnLr6nCHvdvSwFnRgf0xKb+6eDx5MkDmA7fMjTHglqt4mh7h3M7XJD3KhYcUD9lp3vDFVW8srqOuz5QiGPB44hodqiLYm7EaGgmRFZF5Rc2cwwTnKHMsKPaXUr6PfmjTVdsMFbmDaCRCineyru9t4SkK9zR6kaUpRPQ6B/n1vLgPVw7Ce3GLiw6dnlmDpQOTGdfL7SW9btUtIs2w4SjLcLEACiop4IL/hqpuvlOkxQYF/Z3hzfoynLPVKCqBQQkrcvIB/Nq+3xLPrHeACLDrNYmiAVbdHRxfzzcGlWnQnxbVj+tX6dbzaIZjw+cdZRBHmDkGqKKOjRRmDzfmuZOzhkY6/ofuePejlO+hi0ffABEE9rGJ7WniCj9MuNQcSpN60UY29vLYG+Kgim7dQRurYpKJhgsE1aYk4LeBmcd27/w9NMXVgEGGuRcIgyofZ+aaLWCl9JkETDTfwiCMFdKf7lcLS4Y0gPFo8anr4X4/UtU9rw1DV0iJW/ID5DVLi60/9bbWyBPoVB1nLgX2HhOPLnEajh2pHtVOt9tyQ39RdLMGcAm9tzUkBG66mEDKB1PcpKY4DYBTKp1mQPrLXWASIZev8PDedLYD7MFe53WhQq+PixPWFNIk6/2ypjc+b4Zld+3pDMJcconYzjlB9ZS0nBkCK5ChYhN8QFW5JjAUf6fVMh8+OCqv8emVCBvs7ho4yrtwQNpA5XWKv3YryJe1M/07hjs8Tkb/9t7uQI/+de0Xa0BjQzBg5Nr+ULOehDBB4fT8QGvR1enPCdFItMy3g+uGG0N5Vd6MSTwOUVoCyXCgzJigjS0kuAwLQKs8IgInCPVf71BbWlPRipWtAQ2YnX8YzmEcAzgPCJzhI0sEN/Y/hZKrSVhYqdWLIy6YO2rqH+j+2yoQLX1RFnu28PjpgAOr5jFd5LBr/fJrfcj2E3Yz463gJwT8SXC2zXIqcffOvhhWNcD7jxKpAM4Xy1drK9deTFmIEJepCPHY0SaWpeKNafkBGVoF0XE30a6/5w4hkyXP79/6D4ARXXOLAXVvsZozvMIRxvpxLiTZ/Nx05m5xmiYfnw+Itpfo7ysSoK1xDNbfnzk7VbXKeMykB1maffxPZojczaxETO3RmMauY1wSSTFVfCXOUXuHF5YkJycyM/mAFWGV6NqGTXJXnAGFtRPswHB+Lhra2QrHcwPOmjo79PlPqgvnVBrLraDoPE74SxyqDPE+5OPxtNg/k59QRQcn1T0XaHzHT9aoyLjxnSugXfsx3+6SD50R0AsTtqKHoFfGZBG5Z/T3RN9Plx/oA7h5jXxiZ8RIdDG+E2GVMHFYt2txnPnCC7ljReSRdB3TeoHML/+g5HLhYot9OysUH5HZqnldj9HYg5Y+D2kVX66l6buqLsv7Wc/U0hSsy6XqBdIkfd+m/uxRKDPUak3XLn0HiJ9lr+jElKnkKVgmmLq7HdygiQ4ObgDUzWIRQuOAtx4nvbR7EuvHZkGLITwKOWLoSfLqVzZREDeF4att6RU03U6QiXTEvOAbCin9/0y1aPx3PcBpGgicwDCeQUGEmrrPTQOIEG/2QP3Q37AE/shr459FZBOpNdkVMZB/d9RrBV78q31sZRwUIfDwHmmavKevYmnQWSY55StSEAo2PDCwOmiwVGc7Ujn2oG6nOCoSIpLfjisCu+thG+XYYNLFfGDYwKZkqV6s/rmKrBEtdJsgcliD1SwTKlHKgxfWCcnULhJtQS16wCQyCLqASGshkTZsuYCmMMI4WGgvnfaPtMQmceFqWOWQXNXJ76XFJ7MyQ4NRfV1Nn5HdTwm4NXKkF766Lw6HqJ3LznsX8LBzIdOQGYSUNCYWdNnvoZwMZUu8hH3d1nWh9QlylpyAqjdN6NpTnWu5sL/X6tGX1Slj3bLgD8xBCjK4YHfDh22aNLH/INcW1JdMNs96oh0BnVLMFOzMylL13ndw8fY68GXKPOdZfMG8VGb4yPGgI4tF6eFnKDm+SB0AYEr83k+07m5ITez9lQSe6Ynp8QATQ5c9rMwOwqqrbAJwD/+wltSYCZA67p0DstKvDDZxbSzqhhQa69hddbzKI88gQaec3qfa3vVn5DCHjI2hnp+XjCzfRD9pDOyuZX6W3rRRlvQwSyZABFjODwjd1VOLDnZeju48R5j3gkq+PG9CE7C0wNEYd6FbpZ57erquiFlv40R0Y+4OZ9yXTyqYlYPYq0aRPrP/NQXYR2tGz/4vqR9nFINcQlWv+RZZbJP5hPWg8CULKfdhpNUKMa5QTYEnuDXEyMII3ficFIC1W8SWrvg07H9esYHQzMya/7xHcuNvBS53JRPqmxViIs9zSO8H9mUEnvND5Q5Aq+Rq+ZHf0cr3fw60hSlmVfdmE10CdX8M9mURDWr4uRpUivWB9umqRosruIolBdOLBl7zaQ8eyxrlpzRLyE7sF8fwt6khBJ6iJRFughqLbGa7nYW/Ge6Rzk+aT3vsridQga41WpkIPweA9RamHo2Cag7Gj57LXxy6hXm7BUBoti6lPYts/rhlKjM+v0s5Av1myZ4YOVD51Yi9D2jtrcx9JH2Fl/myWUd/DyxGZuGfDj3aZRX6DZzrFtvFVlj3xF2aFDppsnpqbUnIQ5gzDuT4QQAm6WQvqrTMSECq3by/aQJdK4k2dn/to4EI2FygdIuhVcUjbeM/VfGCneGFMIauBWaMnMmu04G/QWDn2NNDpIoX4bw4oeFYj1DagE5W+PqHdqTIfiujc4W7aN1OGKr+Aggn5ZXF+3fQXulN0Axw/KLrFfc3BfeLFf+0fClN4U84t8MECDeguDbCVrwaNkhMnfUFW6rWVC7H6V3L2xVb5LcwQ+7pD/Tfm78i3ojNeXL+ifrPqr1Nj63RHWIcBi+d2UdSq/3AbRnxbYqq6KORMJ/Dor+8fYYSOHXwNtkxphrQG7R4sR6JgEgFdldRwloGboG2gyrqXwg+at4YCAkJetdAXma8/mwSWvifSn57WvsxdD2FvyTYdylVTPS+0356m8lYX740m8dlIW7b1VB8l0eZAg2+KOT9HkJ7wcviG8ZdzXBDfQTGK/Kln6i0kN2Rm/ouyeGqgAqYzCeDz7Kw+EPa9IjcYHkXBGd7nGEL07q34gVbEOGxBD2GFA60NclUzQjtPiAthR05UPYB4LE4fTnYaS2H9cpckv6oai8aYvZyt/fy2vqupVsSf+KBEguxwuhYZWQdIQT/29ZNFQTHZ7RjSBs06PJaKHkhrVtAxk2LP3s/iwPUFK3L8QlONVNSHfBZnEnUODEiQD2/vI6i/k7ABrdaYgi56b0Pm8BhDD4l+EU4CrX22O9zZay0/LAXzGWzGl2Bj8lkYIWJeqnW901gdlTH7g4foi2l46XcyGlp/66eZpKhHPdC2nEzC+B/geOtSsLsxbuGKficDGuuHKMGpK4Zq/StyG0q6DDcJsI6m+sMR6w5yryN31wR34nJdKJk6hS7BkRZgx1igWgMjr13r6IJKd9egLNwom233g98b7EPliMTwSgj95FM9gMsOZRJekVTdYwoomviDCu5A6xRaDzNPmGRWk2hv3L8APDDxUm8TYQ/OaAe5P3zamyky7WZrAS2+5eh9wxtv0VbQESQF2NZx0dRP/RF3icG/3cPDXcdTxQu+VR+VwdVlbDgFHIeqmAu2W+C84XlwE2fvPaDjhFNn79kz3PRaB1Dmr9COTvBnKB8ckFfjeVea+9TXKnOXWsCDYd3qqYszKfC2a1rLG4KifFQVOcDMyh1kk2yQ5+c/bjs/7MZEqHVIdm3QSj+Jc/uipQOuL2zvU4V5hNAnk50dK0g7klyYH/IpewoCSgCVfrMsn9hWuS5QYwbZjHuV40NwkNw4PnGzUhUjrlFjtzzwL1kDq1EPW/g60VwGJxcZ/yokiH0CkqPv6ywUFG23ZiE5X3Xt6wjj/pWNDmtNLabk7WufWqnQoXry7oVZYE6A7bYyJZa2Ne9qeBqWVXZZ4b7WUJA8PyBN5YpKK0ZcAqmTSEy7aySCPOJb1qXYx6aOxa36PPtRD3YwuS+IPZjwBhirk3t/SqhUnAaD0+x9AO7z4XRhn1nHn8NUddUo2h28zr8YfqU/gyYiZu9ULC4UKbi3n8N5ayA04wMKNHrOgqV6S08lpCUh0NocWtG5Im1/M2ym91DHWPVdbeH8lhIwbn5lJIQZ8Tie/ZAvvcrIaiRrWvGWviB/YCJ3GLdrdAmPk/fw68iwtxzNPmuYyCf+lmQtprWFq5euifZM6DPzj/IQSTApndOfBR8AqHhNphafFpqPoQFX41HZm+76xsiBruhji589qudGL2L/MV4bqnvsp+/oIgF7bWO8ghrzLUTJUtARTOaV8SiPkYrbt7bYBurSUaMnwsQo07F4wI9O47hhFqX1JCNUqZtSHCY3ZT90ZjVJavLQHMSiUt8vDJf8I/YbIzyawBn9PwLlm1sgyisO3nWek9zeP56Y1zPijynTwIKK2ps+drbySQONl9GXLQ9QeXct43lW4HtYzVjmqCcqFiIZX3UdaVIfvxeizfeBR/+p6rrVdJ/9V49EDLe31H77joB68kFklaXmQ/xd2E58XLtWI7/9SWiJhX6Hpxa9gAJa30QA+IiICioRaGr1HJ+fB9Rwv6x159lMW86TYaYbkuCT/0xO//vWFWg3ZTFMrp/BoR87s/iaumdTBj2ham2fvdzEvZTv7AlJ0594lCDdM6ALbnq1lw3Q3xKbjuuNsmiuNSgMsznnzJpuTDT8uOm9qKdH8AjZ9S+IoMWIuTCvsOFp1mEI3sx0z3vJS0DDGUwWbU3zC9Sfa59kPhuo+1j6gO+ajpushQjgAgnrIcejk35VGMC4tgXVa9QOnjupdubs3NERgdDoi+Q5d945Bgn0s6caF7xqHh0DfuX7A1FPPhlbIHRhg9V0+sbN/Zhs9Op9SgwqeGKY+LT0WmxHxEXMkLTtX6AWBndFjFVIgxqPbnMy7GY3OThW28V4a/sOg8FVflGI+HihaXiKClvB04asoOLg/0aMcpby4B0DFZi5V73zTwMyuh3mqc8gaXY5uOpLlLIKmtEd6S8K3IjezcCd9cFDnRqSH0JeYy+x6NQTdKUV5O3+TQO8M6/ddeXjfqtUQfPGFsL4r3RQq7IUXMy0E4ter04sKw8n+vehfUtSB5A8WoKNpIF3Qif0ZSraoFsdW7tdti6NKYIoTo0Dze3JTRvyUaOrpmL727NUqAFCmylbxv/vNpz0p3ie2FjlxQIY3vbS1lPekqSnU3Ivq1aZWqG4/EDwfVoi5Bp3low0rv0Ienuoq9NAAboNQkJJp+P7IKJvw5mUGBfNd2Q9KBm1MOkvLafqh42grZhXjTkwPimS8uTkV8p78/MP7BPbMq+ZkwZem766tvXTTI75Gz+Jq4mLcTODyWUrY1wNe70LsZTF4cIpO6r/WA0zvCG8cD9l7VluvZvZUEUIjUlmK/DG1JMey0RyT6QSL50sCLdFd8A/OsnzYUVIfqqLh5xk6g+WRA83HYQ4KNYLP6oLSFQdaCjbHBuaO5Ep+lVdq3fKz9Z9785v+HyXfgpAtQF9IDhtbsSCH6cQ+vfJ3vgd+ZCGQ7P1zfbkP9ME6sZP9kOrex9tP4SV0mOVrmGoGmXWpA+9BWmPqGOtrH8ZbPUB7hjvNerE9D/+ySCx9ilJi2KwvvV/Jfqe19QigME+UvsyKxOsdpc0w09e83J0qVf4txmJ/Q9Fehhhc8NkyzJ8OIf/C6oLGBVeu9Xy3vDpfb2eXuIx6HBm5y5Cfx5gkWrZVRWKYSj3s7zQ1DRLlwuGglmbL3vhBi2uWtUEJPzcTpejsTEEjypOB1mAAqOd6Bda02mZgXlhTIQdkzp0k1SvFPcAQT4T6Dm8C8NOYsdYVnE5Yk+GpXtUHIJ7dq8TQRWD3ZWqfwBHyyYMEqTSK8XXdEp8+fu9WRKRejpDMqNbRBS4YasARAjjhCMRjhjpgg54T7fu9iv3npDK7UysJbaJ1zjHxK/mKKmofQNf8QR9u4Q/tlQalnn3dvGh9EeBl4Ps9WG5NMPS6SR/ez38ZllGLNOA+UlorM+qDMH0/pI5ADNaAhLUIicT2LQZXjAYlE1zQ6YiFARf9khq3dgYVs9HdIbeU5ncreuBbaSYdN3TrQ/Y5vMfXIz+4wULvFx+dCi84Ifa+Lykz6GcApBVkx3avQ/hsPeo1pBl4tL2+exfmTp/yFLiBBXzGrF+cWqPwgVdok6elGLVyMeB4JRu7mnIFqkUS9fhe+j/zsX8q8ohb5y2P6K4ZsGg6qQZawTqW3pwHzqNJCt92pYPULHutv4Lb6l09gG61R8miCKO/rM+UUgk9amd7PzE/sr0u7DCFZLQvvWJBIrom761rhRpOPBSg4roM80ih0ambFi9A7DPikP6BKCozfm+wF27+GEbZmI9LSpRKzZ3Z9+OUyhk563NuM9AeQxuYpZ2yscaXRPOaofbSbShT5ffBmrOTNWsWn+bcoKiu5K/58ky475h1Anfh3+fXCGZ7y2/E1dxAXtpJeKME5dRXroW8vlIcps5XuzKBofzw9k1mRx+vyLp8LRDwC4xAfVRuKSSofgHE4wH+UDIkhFO3RrZX0bvLMFFqFw2v0qS7q1U2M3rpSfxlsqtTT9tEQFJt42Z9fvwKlWw8xHCfSvMLrNE4U2nTsN6rfrtplbTatnd11C4/2z7e3uWhtaBdl1vorf7QDAwJnSwU4s1UgsQn5937lf0Wv/GjtSAGvUJgFFG0m/JvIFq7iIROiqK2llVaDyQmlkyBxK0E3n6Ywj459R4byHe0uBn+OZARsoAACs5vJymfiMbdbAiI2oRceuBDwx0z7E4MJ6ijeH6J3XQ1j4tTA8tb+5vGVjQWvp3G61p5EfHunzgYncKmIATypOpS7F0rLf+9VdnbN7wQubpGaQvfyU4DSWJ2KyjOjwGu5eVdjO7XCe6kgeYA/yPbA/0QNTDBfTFn6ENqGFgRi9bDunBnbl1/vTZMYRZpouZEUBCKrrAHJxZIktY9lPj8Bsg/JI94Ddggn7mvZnQQAXRAGpFyg9s66UI1eaBrj3pVwKDA9URunI89hqZBU5rfMYHJrawfZKVtzOGznz4pDs2BHam/J8gd6n1gfVtFy9s9E9StAnQ635o8GWfEfHvq32WmrVyqIzkDgfMrWh/jnDhQJ8QATbh3+bwo55Wujoknc+lChrahHjQFT3SBLtbFaZn+ScSL7l12owPIKltHYSKYCfrBbBas+GdeMd+jen8mF4ovmySpZ720y1ylkbHmX8MDJeFVY7Cj0vawuMMPIkK66DlfOxjVObaMDcaraCzxfl3qjD6L1DvyZWZl4XiqBlZAnF1jLaoqUdkWlGwd8UEmidkYmLhfKBFGAf7hJQqR6x+H7reixasxMCChROhr9EtmxkPFa3IUTQ26uSlbmnmlucNP3W5IueBqUlKaXSApY5tqpUKts8siSB7NBYRfz28IG5G/OZP1VLatfVFujjJhRh943o7otF74sNSe2CNAaTJybpgnDemmZpJt/G5eLgclrad43vQJA55WfuQxrwmWHxONESuPs8prJfD0kotha66XSMLGo0UJt3sh7t+hO78Onm/zXySRpwk1/u8UUcrAuHgLYu6tUFr2gOf8FZgxRAmFjHkO0u/cNDFZqP14hLUy/ua8HJnJf3spAh7KsScuG7EHmPj6trO13cjuvrZUn++9ahY2sUfYIO0OH6cjWvjJnQ5xrE/VUyY+EFTal6qRY76K6rg9AStoRBFBWkoGT8hBKvA+lH1SDEMc6wKBGm5QfKz/xdnxhFBinUzOF/iuOD4Vf57HnygYeB9v54QWBBXpCul9LUvuKuonA7DuFy/qhfWhowujnr9nfOcfxijra+6/PnREkkcPBJhpKZ1g6tuI4oiSmRnFnoXJo9ajnMHyx8jD2WwPOyf7HParosCOBoU6xwLmfNaSIDpamuGZ7/2vAdJZE1S3wscqf3s8w1ZBvKGlsKeRt6gS1Axxqd2qQOWbAUyRnjKHXqig+cqy8SS+nzKwIw6+I67VdsAxewil08dQRpoXE6LKXgmFr9khLXiE0XVn0SgoLv3hFRy5mdFFeVeu8c0JvEiMTnyV/2xtXsfzFVkTetS6k2b70FS6yAcDnaqk3aR+vo3QhXN+EU8wv+xh14v6CqvhEVcoeOr70ic7smPtWF4YABQXOC87Y/BEiJVyymO1HdmtKMWTPLmxrJ9mYsRutCk6d+L73PwlkjJtOuvilDzmqeOtcxd4xEXvyj9CwSj2zcO2hr2t7iDQPdCsXWfxw42Unm9RrLYUr+AcgaK6kygf6oP67s4u2E5bz24xpxmWyCorrUmYb5+ynQzah7yet/om/gYMSeQOwJV8f8yoV/Fdsjn8hXlSEyUmRXSFqQgg0Py7d2qBI0I4ChrR8dnrYN+mUkge6F9owRyZpSty3sWrtYVbmFceRJWTUFvjGig+Z5DBn/hPV/bTxM6P5qWlOQIAiwchcRRwf2pSwDKmjX3Jak2pCQNv4Z33fv6hlSgKdaiFso+4ACWND5rjk9IkUGyLkSxWCKKaBk60vjB+XLEGVM4brMj3iqc0I1gU/OWafw2UCMXNvoGds51PAlo33ut4o5YCuyL3zdTS/rE+HPHGrxYE/I5FZaPLnuWb6CZ03G0/2AMdb3v+QLmp3iSAk71gdvFSPgCMICWkdTz9texq/YpeygWPPOm9XDyr//FKHwrROyLhoqG/FX2TBxAmDkRxa0iuJ9xED5nw0HKYzblDL7PThJ+AemmDTw7FWIZtOx5VLsbVA+bPHJb19v/6mxfgLc0waMFuyTUJHa1tswafdqXZXuEUEI/nm2dk2AwrxQtmdLSfwUQFv27S0P3D3itzat64IgwbVCIO3WC8SM78mr+lzCrOflyg5mU/vUIMAO2XEQwNFHC6KnxISQ5kQwARolQCEynCzJrUrUlP3bNPpgTvkRnzjIkzvDa1x5l1ik/JzwzZke9akhAxAPg5khWEejoiZTMQrQaiKwnK6ZciRYdFBMNFW7BFokt/nK5fmNHpaAOF78RQV9N/VzYQ3ALakcwKKjqFFfZ14FMXWsh1iedsQjZ8WqHGY62Hk641xpULnTaQbolBXOV/5K+1rtWgfFcB+QU4RIOrqzEg0NdJut6i4W6eAjyfvoMOIDaUe7fgx/ALEQ4JeE7d9NVej9t4c7j6r90Cj5/ewEX1bLdczm3u+UYOV2t0tj5DYtBbdA5apCym7XE1OVxrVO8ySjfnjSeiPIVRqBsK7K5pY0xxIZDm/nuNA1cBLuIIlcF3banIn+BqukpbvPaUSzHdl9dPUhkELh+ny/PM2ih6aXEaGxqf7wy25pxPsUq0uEZYJUGE+b10jcRNIg2xI/lnys9c9sfnDCtC65y1HcsiaamOSCWry3n1VNTa31K1yLUZ/3TBS+Frhs6WTYOcYmVejp66L/BEcD1QAJ7CXRHZsQFnuMMYcUY1M5yYKnGlDW5l9EqHX1Ab7dd1kiyWJjseFepUhe+OEJPNyE3gvOLmBIHvFXtBqc9QyZBLgHO76LiyD+aRxG8GcK+kqWkYhfRbZ7wK8I7fO/aD4OY98MarvsZQFWXqOMWBKKWVPIgSv6EOzmgeZXrEbYiFugNYFEb1y097AuN/7kpCdxeHlE2vL6FMBiR5IqsYdHeR7CtsXXCmgq7YYl54xn4+/vuhEQq/EyQIQWP3xA1QyATKpyVWYK5ntfSU4d/JHp58GO2UE78SEDoHSbEkOb5GVF7L3+69vbIpGe89BzcEko/aRrO/gq4/p4HUx/EtQSbwBEGUQuZnoK0FOvIkLUtbIPEwxzKVzpeza9gkTH+bxa92sqFdCZLPOXHBlqlhKg2/lSKnCUPiNeLY2OaeMltRxZpqyhbOg1djTpgOZRHjs16AflNs5cPiAk1QGgccuYI7edqWwWnHXcjJxd1s8Cla7w0A0/9eeK0seuXh2uFb2Z6830onv9Hqx70h+m7620cu6kc32bktkeBg1ensGDH3sUh5knpobWw4yL+ByTMnlqaJpVW8gH8I0Pn6cOLY8W08cr+VBVUdkP/sca5wVcEFmHclkciYYU5qSxJvSUEOxy5FqncACZKfNr+wzJ/l1h0WyE5mU+xP7cUF7J78WD9Y3K+qYkNxVrcvB3IBhu26ti8r5fNZ+/Ut/wpqq478+2Jh4luG+JpkcuFnQFZxOu20e2JXXJ7YUoZ6xAt+/PFLypcz7McSehTozK4WzeJ4ZAml92rwlivqixlOKvnNxVM4hoKE8k2rBKkDceWxrcP0hx9XaEOspnS57wWLKbu2AEylEATFYHy8YCSrTvjEKBkI3Sz2V5Z1R9yPLkyq9sU+OiAEd09puD6Hs3L2vCgUla9+cyaNaOuK1IJmszyc8a5asIUsKTfhudW4T2mRgHP3+l+FercrHMPGFNsCXSbIFvKhnlrczyOh1sMGFQr11Y95naiFVdXPGF3FTFVfNgLjCcIJf6VkdTOshNmnsfQtkwvlY7dFgKekP5p08mKa3Ik7WZjowjK7bs+WGi9UaMOczODZ4qiAQqbpV+4uaExpYk2vYdr6wOCCY4j6XpNtSqz5zzxYIlA9jaicYs5U+d/SyipDJ41sPhzL0jsuMRXdO52xB7WZ4DRqaaRmUkiksmGOFlrKIpGeV8s8/ZgfFo3Lrx3HU9FAieHqHztfl/vYTnp7ARfcB20kyRDAV8EpfmFcdbOpo4L3ogC6akDKX+xag6LWzeCg4VjgaeIBafOGI00Izq9Qs3EKwwVr0qr/Mi1SX1GvOAeDSjkrv8HJa54/ERYh+AfZV21Hd1TQ8BDqp/gvEBQrXmeuxp1u4PLv/wR9gePqL/2ofInbpRicXhhSPPkZPvwQ/sDrpKS3BKGmZpagEBUOT/RH9pnwzVpal0ZgFKNmNL8+NiMa1CqrcmjRPDlVdu5uLoUDj1RqdJQd+P2zdjZgSzbPFtrTnlRNZ6TKU2/Gc1fuwIv1RVUZyI6UKHw5JVcBNR0pEucxil/8w8zhZ3DnS8gq0ps6qrfMgaBT9GJyLXPEcosDpLExUf2pWwTyGPIupvfqyUqtAagT+gPzDQnBm+QsDtAKnPj1p0nyEt7ycGrJaLHMIZQ1cRY3Qh5FYDuTmh6eoaAQhO91uXrxxmubqL02gD9XaylrRrct+weH7Pj4KlwkgluGHEgHfO+WU4r1shcJafDB6OEjdJRqgLiF27dy9hLV9FmSKtPEnzDHZm/rSuNsI3sSjxwMGygXI05J03hPnMeE2sKnPM+fGmrIGB8G+cMrjJPDLzjN5BSOWkYReKdGwTg8lxlcglks5kmH/ltGR3xkE0mJMOxTdSvug5Xt2EXe7jrJVP/1KAn4JJhxgNkNDCBEtp6JGmsV5J8r4qjQujYfCGiUEnp/qtZ71uggYk+9g1sOdMC0jtJNob8aDx6snvNBFT/1DJVW+i66O0EdTeJQecPUO9AaDDE9SQLGXxZvOzSui6hdJ/MRHiFzf8Seldt7s3M+KEkHW1QJglpkLiiXUAbKUhSLe4sgZLUCbbhqGVsgotBSHKT0Q4LFQPEDCU0WcGmzcGiJ9KQ9l9Lgx92Ssd8mCzhvWmhPTxv9w1fT5HBAqM2i3wwk6dptwVxaYPwgeqvB3eWISv8Vv9vfg8L2l0GW6tZP/pvMXfmBcOYoHbzg5kps0PifWj3wY/EbGUF+/hbvYnK5kzRgK/1+rwWnwyLwoLgvurpp8uDPh1b4+woIbXo7qGurLV+0VxToDlEUQswf66AO7nrPkBxlPCjTWMkieY2Kda5hyKVf7yUGEwhP2LMy+qkkYrVff4y/maYOPszR/raozTSWBPBYXaT5Q8pRNdXPr66jZvbHxo88+J2voka72yUNQujBPGYX5k2naG417coQCmALEJXWj5wUrJ3CdcE290HUTiFAU3haYbdhgZhsrrZGXF3kreJqyCFiWAl7YCp1wv5PB50awfUU3MnOPxvqakeucqSfef360c6WukcOmrVSAFNAjStAM7qcGO3yz/Z11tAXTHJVJam9tgc3jVgdONxxCiuiL02NmvnUOSo9sqZ8H729lPT5bHDsyQ1BzpgDCTtD1Vh6h+J6nnQMk7wzhYmhn5uwOy4vYKaRYPxNZJy6ADTZNjKABMyczDA04ozTd9LxqHiciR4GGIl0tTLavwkQOzzLj1FIy+xVvaaasP/dUTya8na6+GkeeuIctaOTYD5JYwWbCvBPZzdk1jXQeUvWO6SzefSh40se8K0avDG/pBdxgknH64DDqQrcBFmvtmKL9fmwIKz5hbDFrYAVNr52cpBlmS/W4UVhzn5LwxOznEgs3NT9aF9EUYp3mRT7VpSwTeKK7GU9/FrqUCA/H+uuzO/SNVoP5nM/Awhx9bncIUxR4lhHkT7HuoJA6m9oNKuqhba7L7BVLnFhu3cxGsZzkrgrmBrlVfFa9Zfo9iBp0f210lO9nZBsaRkOoZrvL7L8JqULdGwxntMdrMB4Its4DrXQDq4ipj1atiY4yblkd3zmBnxKMiY8dLJuC2T2t4HBhukKZnbTeLKyPvhGxLCPTtSGsec6YK0qUSLDHSOlBLv/+8c5pE4YYecYt1qrMcWTbgXEn6+P77HjmOtzz/TXeR/+ouTK81d0vuYiYo4KKiWt4pjrDdl0LVn3MKhfpHAaEyJZDI2ouSHWV4sUA7iLq12SMbzvwDS2LJVR4DEYOJQH/qESxFNQuz/Qxd8rHxsJG/8E9i3zEwYlOIfzdCBYS8NGY7MkMVaGzIAUsS93oh4gRTo8eWGLhojl5kRRhdLmbnT0QPR5qOIy668fxrYtui0tgPLFMtKQg/wBQ9FnNWCDZpURFcwvhyLFb+G5LxS8rK+V4T2bJ30fmqxpZrhrJkucO2xzdIUG/42BCaLn/E9qi+KEsT7RAtWHO4uvAcOC9sjLjrSrNjpiQv8oPKDwTbycgLVVO/gKqZiJsI6ZvvamDvSHA6L+QpUCnArVZ3CxuJTvSS4ggj9j7M6uDdjHU4ncxZliDTgZoaf6OIpGc9KKWT8YP9Tl5ey1rc5tzqg1jiyDn3bKeTCiFu+g7LZtjZxp+rokvB3hCZCayhPdRy4BrdIkMe7nlJD9QbRaJwUUPmWfuOZP7rQOG7UUzHego17ssMO4MU3Ex0HTnjvXYvn2LSR9yicCsAE4s3VxcnelDN8NW8XMIndrSxmyEZ7f+fMVT0gWXThnzp1YsNY5EBbq4SkwCosnWNpT6Ba6RZRA9RVsfpQtX1W76vNwv5wlc0Csj36kID1XjCkSZZHKYSdL6Q17cDhE9DxZCJdpBt8k8otarg7ss/0CyZCuWZIS8C14+sBrDhwNDhSEXLrKZH0CgSDmzpUVvPnyxXLmKhBEuNUPCSaPN5lmJqWbTeDs5IXLz4N1puXkQ3tQ0XNPCSYmAN2D0dpaqVcyImkFxC/W1E5wlbC5yWNMMNVJkjSaGsdeEl/epLQ19+XNYI9SJIcbk4CZtntuOaOA54QK1mm/EugZB+tj6u+oqtqEVECdzBJepvldWqLJEjtrhcUNPYbvC6n+xxSzqqvIDlwALYsDK0U0rs579UoS6rFkvpvFfwhFFwhLhbf0vjAuJTTEhkrsLMr3Np3ru5+uGm9KvshqEwXio3fEo2OeuIynlmpO0ZMtd7YMBrxoPdq4WCjtrtHnOJ4OwsyyY6EvQ+GBop8HEiKkCQzpIWgYzF5/7HTqVtuwHC9fEMCBgMBpJxrdL3ojWLOLr3cgGzOGLYT253PJp8sFjOCBtREby77B54pkh9azfDhRw9bVi3rBzjSbNX5hoS0L+58KcHGyd2gipKz9nUDK5vm27MauxXtVX0k4aGZ2Z5oRFN+GIwxmKDsGkMzWva4+xtTN3akq0Kc7R6RP3nw4NvunaH40+WzOtNcbZEG7ZOr3TGyY+lyfhO5PGQ7okfYFhm3AlnhY7JLiOH87tnxRa89lncBphraac1OCIp61ya+npNnD2P4xXEb+G8rXTtVUq6SecgMMRMjPHjaiyPMHEshxV0+Rr1HSdsd13PTPHZq9isygAiWvDANJE55k0k9qZ7sSmtw7bsuyVYDKavM0eGfeFlCcfN210+uorRJhJFGjl1l4adWio3yNduebqa6YOtNKem6WuI53atRqstqsVsO30Yt0+T6tao2YavZk5Qhswbnx38bpihEWXlhttso1Wew/E4XrMy7S0srLHBmhXqw3qG8CI5HKRGnnE/WhjsHTL+9iGJFp3C3Rr6HAmsTH+X38NaYCdf/8INIiMp+PLYn5w5UKpXAbluzdUFc/nVbNGkoJeJzhgszBlP6Y1sgjFTc3lRXVkUmYAgyL5ZVQPUhrVbygs7ogdDWCodxSqT60mL+r1lZ8fNlQ35AXt5xpJwuI/B8YaA+vv9C/5J7kyKAT8RnWeWJIBeXajIIoO0uZkUGRod+O5who7FfMVJFRASucaRq41Navpq7G0ujKzcXIbYNEU7liI3vjj34uwghrmekDg47Zl5lvCdW1sVmIRV6MjbDy02seSZELF7xVXSd2oNuOJIZ0PXf9smXJ6+65Lev5po8AnIEL7PyjuMJUvRoaXtaXIjAqJzbIMOEc7W8Qu1W6zT4HL0O9E6pfotetpX17DELxoRntPciVw4Y9ASndKZRDDd3IAS96bRXIiA2D0gEr5aFL1qJnLSt5XuV8uU/jwIo+FbqZIcTTnM79eUyzLT2Fog/iQXcUI4m9CRu66gQMLRZigPlKHbUdhkCPTK9wdcfVy8AwXMQrSW0+1pkQNoKATuL/ufcQzzZFCTygIiiA85vpUOwTESJ8Yz8bPTKrNiM+eM3jSpKWSuCNmZcq1ieNZniwlOBwM2SjUQirau09OHjE9G4GqrVT+Rk4/mb6LWWI2EamdIiEaBe3TV/XN4Eq+To/hR9+HHN0EOMPamDg9RSHND6N41+Mn6jLjTTyXZCkz1228CCQhlb5D5mWRW1UFutPCpiOVqME5u6iIFMUtgM6vbzu+d22SyzZP1Z7XXuJiavewa+tnoMaRXcXslBzJuEOWmkwwphjEaEan9Yg4VEen+L/hgmg3E8pGIzXZ1g0zBCOSACB72p0lplIPzq1od+qCAzlx+5JriMiOyD2JTTJvSiWAj/QZTexBZVrQU6fQPBs9yoUXB1zpqCdbONT4MmMcme0wbLe3NpPjJZq+26zdGrEkNTCvn1PfYElIxamKar6jb0U0vc73gsRHKdndoaM7k/KPsEW+sJa0GOxvzT/B4pz4GTREscl4IHaWYEg/HLAQvsm8i+nPamiI1LvucJ0fRYP2Zio9LoKFRg7uBcEctEsNJV/G9x6telac/DlUpki09G6QXVgU2lbGYWmKNWk/h+mZMpt73gRuEl3u+UFS8peUiQQGOd1YHEqCLadLD2cvgEGsNNQuZ5m48cDAMgaB8fMb+fFdyUp7qK/HbwrjI7DW/aKZKN96G5cxSWHSYxFO5Lp29W5WpVxDWSnopPQdPtnde70imlbyhJM7bRGDgeIgoo2skBE59MWMZKaOdcTL3TGKzMjhO5I9pIYG1tQf/IrTT+YJMahTsMi7uT60BPrWy8nxoqaQmsho82zg4J+9gZMfEW5r1j7fJoey2W6uAB0OYIAXRM+megM/LGKNjqG82yQcd5C4y+EJpb6hAojtmsXvcOe/XgR/0j0jvZx+tJxQPUmK3j9/mlKX1xVDNRPTzwwGxiW8b7MFCCtUe2QrW5Vi8mPRTaCIhl4pH6xNJOavpUWZNKLPaBAxi6TDUKpx9TG6nWqxn0eI6IzHOVcvdcTSLg8zBYPHGNTz9x4/fZeMvJ5VS8aKhrKRsaekYiKImW85VoSah4OMrjtUPhje+NZCbqG189OK2WkqfyK7Za8fgLCn//Z226u74hAiAmv4uxtI6WFzZ/Kt5HhkSjqTKA5UR7XWge1m7XWf3M0oK/Zh/YGrfroSyMKYoPi/6L8/M1ibzIbpx4ZiB02NmQyN+bRaRuiz1hN+Vr3BwYHTaXq+/O4QquzIwjYFq+uw0G7OTn39xc00NVaKKomj3ombFGp6cSPygCYIarwJKpWx4bCTUCBIH5ZdwkOtuJ7s4Sx6cC0mbNf1fNaS1zgRjqv2D1LwmsTWXYK6CVdiNFodAkFaRmYng0nfdL506BCAvRxKaNGMWVLJtSgv+nqvtIje+y8/31faW5boeR8kMwOmSCLrKbfLlgQNCJz2GezrPw7BXA9tmUYzUkzFvJ4YuE5wP4c9D5TqsEQEjL+7eyZ+oPLAxHuosuuSiXhKm3RNYOtvFjDJCzCJBSQ1aK5OfG4iqPM05cl1V5qZ40+kfMPzkBdU38wuP/fV4WmMWTpm++WhwOMrCh3H5Jfo/NiscrIRvb2oA201ysWh9bvsrkYbZfWnQcsN+fSSTk7F6ip3ZtjreXfSPYd1dvzro0f6YSjWliiuxEH3Pj2vUdtAI4Y31hfX0peFe667Mu5X/uiksu8aRfvV7KMkfl1B5BjEpzF1ogYXKUF4exHIPL9ij2sKqSxFpGZXajNTAzPo8XpquHiAP3dHNDQY5oQo9k/HBb6bD+vS6QKcelznRXewKTIUdOnWx65LwMdIjclcFwsEOul2+Yv0pCNRxdBS/5xrzms6aVZMGoUapUfo+OEcl2gdu6iSkcapQZFrgpHkS34fwkU25hVpciszNRTU5h5YltPCL39d26cp8O5q7ji6cXSa/DEGcpEyE4ETqpNbZa/CxWc4d1RfTzwm40G/FBxpk7+bRzZ1hPqGcMSbddJ65GvBrl4EkFKG3l3FE1jXWPSuD4ilZPr9RC1QPvqFl/PhvkZ+Xcu//sCWwI58hXgYBiBheBvIp6jMdngzGoAdTLMbHXU1p7udkZeBQCRixR8MP4Gx9p4voO2oIsOgHIhDTY4XvNz9Yzd4dY5edQPGwnqEi2tePmIj04HFT6HUdpQfMTHBTnbyrF7mdDTNAfBNAmmQI7OnoilsgO2qY5qGBXBIAUHIu7Q4CuYGwkrAEgrsU+O+2J3Ak+yRc1g+k5g+ln+gw4m78ryVGUTkT6/cY+1d50VwVDKPnaGbERUSIAG95C0DGjQjMdwTQl6/GEN7hJW1FBArxmWrW9rInrgw8Y0jmvFQS5lTnUoeWEtRECU+AQps91+YLCBo0Uthup41m1JIiaief4cJ2+Kn9GG7nleSI7wVXkFlmhIMeTx40ByhEmXt/JCssA+u3lZgc8dZB7QNML4BZEJeeuQ53YBMmYZJCWNWlCJPm4JOYZ7HkaRGlWTJLqFXgnxkg5CfWmlS3LMtcukzREmA+n1ly0/tuZQbvqfKcNoan24eWeE+lmNLMcC8rwy4YR8HPtGKaTuKt08qbwG4B7y0Nan9SAo7kUvO3f3NLxUXs7ewidrK8EG1wl/ImxEphzHrkhfP5rmVKmMw/EmEAk2Wdc+7GwV2uibge5xvXHp1/QsyLNhwp8k0TSsmAHYNEg2lSKVvl2mJ989HyhS9cu8YSLWHIWSRTEum8DervpSzs+HM4uvVMaFszAIh4yOcDdqv+c5PpPuBtFLQO3cMWYnW8a7y1IhkQVxgyYA+EyjzhVAhvMTvfwWxWtiGUNJ8ull36Anefoi+3RrUKGbh8YgnfOrB41p6+tEoKHcq0PQmfVdKsBDHD/rUdipjnwKaOLFgbCT7xgUZqUHSdjiAseUbYC81HU0C5XAa2PQa0TfQPnvpjYqPC6RDIhKW2+/LPnJE6OUN5NjZTgYXn5+woKQHWkD4HaNGbXZhk4ntan7kngMKKNsJD4hfyHTJ+0JL929XwyIgWMYj38tt/rtMj3JxzSEFXdHaOOjEQtxaosNWVt8hAnZsw1c9UeBYQXs73d0vTT4frk8jzWlT8K9UCoy7WsMEZvcL+bBrhMLZFkNkmqOUIIqE3P/W0wB8qOw4WhRlQcFWjSBi9tPkDeKUQ4b9rqdNNCf4r7Ww1yuAFiHRd9BKZZVH3rAX2S93H8Ei66qqVFPbrqUJrQwA/sOE6+sR3tIqo2eL7/vc6FVKYYDqAbIzDDLVm0XRXJmom5406/k3vEBwEEMqzDGZSyfMBA/PK2Wht8u8nBAap6rbu2Ku2DRKByjnRkBF3vqGhIy6qTUmBQ9aVS2CqgH2hdMmkT8L6CyD93YwR4h1IX0WCeAGSqIOcqVsdxVN4uRschXv1bzwHA+W3bj+c+bd0SFSpebLAV1b6B/uPn64pmgqbB2r1ZpCXA8MCHqokgokRdfpbb0c0nkE2Zx7bYt6qJl/lrkamekr3O5M3HZ3ybkhByRmmgDGdAOf9f/+kF2eyJ3pyRzcFrhsqWoUKmuYHKsyOMXDleUMNNdCCr6Yil/b3OiFiKHu1LHSqwiPbGgeLHloClv10y45aa4ra/LWoi+OcIBhJ7uNiSw2ZinKDjVjOWxpCHHemgQYWAU9ETzHLmNpbu6vx8PSbY/0OMlBdk3ivhHPTJhJVkX0YV4wpqARydEJshZD83L7LIYjCXOaqaV1TxfKG3UYRkbI1G/vhcFjPiz6ofHnn2qIb0eL9kG3dAIYvHU2LNDEHL6Vgtd3Ki0dL9o/Qu+Jho3/YiV0XTPNdhoYgx1uDZINU5KbbrkJavoPEY5qmPr+NMBKMuEj73QLzJ+hxYGkYZpPNiR74lhid3Ne2dsmw5G2V9c9H/PPpROynb0Ef1x0jzUMRuzQJvstlUmHO5jq7dncUwBza8zTP/gAV9GIN4bzh+HQnb/knwk8Cx/1FGd9w0EBuSrkd1XpUKpXiLKU/tzjCSKQHIlh4vnKqBAkMccgRJIVYMFjmxD4zK5Z9htx4BoTjoC2FxCxno0G1V6UuZ45M27qzMKaZcEC7Q4VYIbuZWgJWxAN1Gmp1P4yvgRl3AusIYMQWMly7WzBXj2i8u8+k9n8m95xC9038HgQjsmn7ClIK9lOr+aMkem6H54AXe/fJirPP0PEqo+jNPjmmr5iR9cbFC0Xkp5umabQ0CFtX8eeIE6Ff5hcJDtFYzOiQ8Su4nPzti3VYwjHJaP1yj3snejZ/xYCTWu+EzqOIM+6dA5RtnYIdzr79UnpvhIeuXxQ9NNtVHlUmF4tDg78kuKtUZYU+r5hXT9LOX/plSEoFmyNJBn9wqlqUGGG3+5WaxXGrt6XpBsfvn7aWcV1TPIgxZtLCmbgq/enDq2/gM/zLHY+m6L1w/V2oAkHJ7nsJP4EpsAFL4R+WlpQkJhelOs4EkQG37T0FTz8D/EayWWY5pZC1RCdSu/36m0/y4M8oO7v+tciri8peVtgBK0qYON6SdjRdqZ/Kx80EucpzaqTynaZYdOUWZ6iGkZb2rnteNCRRWzxlCZ4kZK76XdPtIIWs1cgZEpbQldd8fim4ZR5uG9FTy1iM0pgUb4Rhrcj5HWuykMZkYpV0bnf79FGVOLKj65+9AFQRdcEj9b+M45q2FjAz18YDDpHx435dEFYa0ThQ7f+gde3BiQG79n1233vZ8H5iZXgKrS8+H49y61b2SO4BKWqLvedZXpbux8it2u0E2jnFeEdJp+zbKXjkS7h5bKPdQmyaH6GETeEMWjDOzvTNmf4HCQ9GOGOBUU2hAUIWub79nX7w0p/MN4MzW6vWQ+cv2qrBIg1KSh9xz/i5R21AYdjLQcEQpyL+2jfUlcbTEuZMQwaCn5Q5LUX5J9kzbM/9OtiG677XXrGbywnDCylgMoLtRvCkwOwPtAUqJmYBaTGt/EsAJ1Bw5HPEl04PbNbwSbHFhPxk6qeaEEw2OLBmOeTgIAeFqyBRXCjHS0fWKMmzPiPlyt97/zIIITgqwcGEBZw5+GsHkZAsmAqfGHP3FGqbENjyzlkRxO+Fr0SPjhVsf2K6SHoWFBDCSEOEKTxUU9A90B1yXDWjGJvXIMgZSNWmhQSjRgACjABsPz9ulCL3qFNRf7ANPQWLI12x3ZHr23BivW4zK9Kekss2xw3MtjMFnjcvEMfTLQg6NwsgbuMeKuI69s0vWiTixJSd6CUhxpbht712DJoiUBRhEYnh8dxukJxaedWoMPOsXuIqhgFy8rDCsrJJzIxB5sGyTtwBWp7NOrwg6IDcvD6nBeDJ5Ss4L9y6rz23XSHSqIS8RTxy0ROJIXQWmJgoRjsi9Ifm82DyEuEyUdEC4hUskiAku7VMHWj7ZI87YLJBfIi4OlrmhNP5kgqri5jJrIFXoHJIi6zTh7XNyc1s5sGyTNnUH5r52IatdcbHHSQyrWmFBBQaUjBK1LnjWZcDP+Y/GPqNLapX09sHQ0CIsvAmXq2tvjWnwT7pXa/Y0dO1/qDATkVoNOtX/9Fc5KfZfsMtv1urTvImcqR2tHmEScqp+l37ZVeg0h3DAAvkKuTS6krmQaS+MNzt58wvIrAu3cYnp4Lp5CSIoQK3kCulkIO3TKVWZ36biy/UceFa3qqVfPCB9RJ/jtp8GGhwGZ/xQ9n6BeCa9arbXk2vwCEiIst3aFmFAYNNcirwQ68mB5dr9DWe3z+8Npcb7OmD2P6VpChatQZc1jheF1gnkZQc6KGKIKZFH42os2CH8V6UHY21rVVABMFVCZ+BZ2hIcnH5kI74dzzYVsG5D3DMKJWq5I0PuhSsAsZ6gsXxpjv3rlXrd2NsehdegdDxw9JJVr0pi3eJWCm9xa91K4FCldjx+lES7b+lqFG+xmaaYsd62JdycGBfaJ/ep5f21u1YRSAocep8bRTlB6bAXDXc7JkdNxibkwp+BedvVu3InAMi9nVOV+IYRnaRWYKS+kTgkBavrMyen6UytaHYLQPEi4ifTagkNw63R+izXxs/N/cT30f7bd421FJW+fJgk80V//UrID/e/y3CGnZlT4TqPhNh8nkB3+dDG02xFe0I59PGI8tzac7OARjakkhATKHK6PY48TdlmTo6ZtesDwHu8khCcg91NSSJjwP+B4WonEAXoWda+dRU7MHD9CRLGBW8TZ02v56W6piUpUqb/wQzB9fU0KN/+bg6N3XKd3VexDYp5Gg6IvoajFT1zHj6fSj/gAU0Na2yYCGvw4q4qi9g5JxEWVmpZ1bQzsu+7cQ8qgMR6AQ0AlTLz3rw7l946p9qeVWwl0m+35PyDWRMNlO8ON4kjz6HSMZwUH6P6urzfgZDKybrPPOq1svm92QwKEndUWT5yrDbDgnEgm5NQylGgX2L7Wqk4usv0J0cI0ZskP9XmxEIrDVpUC8C3rlxwpqWsc9ZJIbbJvgHlszh+RKr2PmBmQCdEDDRcdLu4iZLvuustpkA/CO1c2UnaZqRqS0U4MjyVi5HgBVVmzfMoR4d7r6Xv/RK6qeAJiAKKwIz2D9o1Y82JLbgu4xd7dOXvxhOif0WtbiqiFoshItkpk6zYnMnOw4JRW7azQyqIpvc6zjAKgCYqK2fOj87J5Fk2pIj+q+BxGlReIZMyZH3uBB5iKxYzhafiEBtCGs10vVGGRa9JADKm48Jw8d2t6keLv0yCDyN0zx2jEGhidqS0jcCvFi9x+UgoozoAU/RnykYGPkviy7Bn62Rf5XlAznFUCm12cA0Ki8iaafia0I08QB3UrlbHxJYnqP8vKnb6M6GK9rTxmQOCf2g+nM3DB+eRAJFieOie9xFzNwax2SPY0WLnp/PCDXGSL2IKPkWIAd19R/pzabmAvDQZBAGE+8QObuuAh1/gNI2WsLJP0FBTY4RruhVaAKV+ivi7UWrH7IVLIPqeArfUSZwI2yvF2zL6qiTJJvvKe/EsW5wtue2tFKJUx4SRL1+j6lhFQMhmaYE8Df53+UE0uJNYsjfjIr5NjSbzVJ6Ko5gLADPld67Kzs3pUhPxSBSZvOdy+i1G7qKjzhwNMY9d8MzIlYdDJZ2Cysxa2KfVva21+aX3yiddKGSptFVIqhainkjIyNjyub3wRmp9oIyG3yT2+bD65klHPdSLfCndf5C4Zp/6xfAdYkXg2ZEYITNDH99yqLgeOsQBS0MtykEL+ZVaLMu6ntKipfbOXbQqxk72JJFiq1AMG2Xj+ECFGSSt+ooQLVEJ9Idu6ggXCYjiVpt7Z4BxUMTuhxTRpkLvIOus/gsdUa/dbHVNz/aioTCCz02OWK2vqske/NDyTv/AkHETvmt3D41fCjod4I28JfuDdTe1adwUzkBQm8/lEw8M/waT3UoP4QiTTosvTHTClXTlFyEo2ZqS/QIIPN1mdmLOk0wX7DismJxLD2U5vamtNV7UMHHm+8Dc0wnd8F4Azou+zkO14Ci8jTCTuAQDMtBy3GHL65A2okSxSSXP0Oacj7fQq+suVn4tQOQxQ8dZMC8E8RI9BE2MxG2jG9UFPaQ4kqSxExmq91vgoGqYpImPkZoAm4TzgUo4jd45sLRji4GhOnMiVbkfNc52nnQoAj5qeUfxkM8WZBVIk90h3eq73UokBSh7rD8fP1ZBNQDcYhDeXW482c9J85Z3wNKQcWiA9XbWEBDf+Z5BD3n2ce9SXk2yvl+thN3/SNOdoA9OtbFNMXQ2NHlL37lIoNUhDxuJe+0XXr3PDmFsKxW/sQMxSXVWkAleP0e04A6C0Qz7NtbSBBh557DsyTNdYoyQ8twCxLjuThSigd608gR6757bwYS9v38aCnH7ioyXlqI8JEv515cBPvFK/aKqFozESXoemRGYcML/fNYbNs85PQRfX9j716VvTTjeb53wR6MJZ7GbfV12NV+uCjkNDDi52SyYIeqxFW97I0HUBSQGH4yDzYTqXRrXP1wbyDWpkqB4eN+b2lWo4k+3iqVowNbCAa9wr2ZSgRN0FZxLVmVo3mfpZXctHakkvFehbq+4kbTrlMVLsvsQqLiV4seWdDEj6rQZAchH8P7ZkIUOf3m39Sy61TTA8l8xDIvPlU/XHsJ9GpAZFwCnIKrotkdHqBlev5E3foWyXD2khyrtQw5343nda1eWgTF1R85RBuXAz8w1UB8k7xOO4O8XK90KoweWH8peHB7ChkSJRym9BMiguNYEFYSqDaFRp0e+b7iJuhJmD/3GxrNqt/2bQCDBqVMVF61ZuRdBU7yGwdAI/p2w7I1WpYYqX7b1V7N6RwtspfMG3GFFwR2PjE+Vid00gbFgVgLEsbqHkLn2pCX3LiaIlwmFdoWEFQZ1/c5k7JfleNtdQO6dpiahGLhSwR3UHvviOUdKE/j/PIi5HKX6UGnCIQqwZ6yxOYBxCZKcnXcQtkga7yPQT9xlue0itl7OcTIx5h1JvYZfor5CoGicKAywY8cDBW6i5i7wNwrKcUblTD0ZkssAQk89PTjPvI46+OcMaI8C6oVjR6TSSDfwJTgo4qoL50QPwPo1MCRPyfxH3VlpEIlG18DTcrG4FIiww+h+BAx3tbgLn0CRoTlIsDJQTQXSNH+q365p4DsCbVpN777SIT/JPoi97X7bl3Rba7rER5b8V1D88ujVhKyXWiWlhqyFUMZ0v2UmkZYBlHeOOK1wO32g7vH2jizq2jBw/6g/ASiixaQqGFPJFsBrFG2P6NxUmthMS/0ypkVWSCmBnejT6m/8jAbrBPUxrq1ZX5ynlPUdA4d5+TF6ke9ly/FcEKigOQqxAGLuF3ljTotdDWfcZMAZdDyG73CXKOZf7raeE+/7LepSRfeE/gtanIMejkL44HTrMt8M8qRcd2XfFj3o7ZvdChmKmapMoaMmTEXa5Bn+poOk14F5pvf2ly4LZVKGFR0wrnMIwRHn13zTd2N6t0DH7F29SdX79MybHnBgA3o/TH/RZmsFN++tKYeaSl3gGhjfPo9JkZdk6hty4cd3EZ+BXHMbvCUbeMq5MgTRXL52n6ESwxx+vMWeTjpYixKNHTyDdyWDgyy0PkCMK/VanFf60vmNH32GxCFrtFZoewACuMuhGXy/TOFM+grQMzdiLTWTsIGzu4rDv5v/7Mgy87BLohHflnITXvUE1sftIQQ1ld9lMFfgH9mx0s+V+MwLkXd9LtITIzyzlhHraBSC/Sw/pFvLyk14hj4chnwqUvHiiftUmfxMimnt/+aNnQDG/Qs5dO/T6De2efe8DHETas8ZtCOcKjJr6P0/olG3wj/W8qRMXg5g1vNoTqbdrWbzS+NFhil2IurW2Lmh5jQSslfKYHhmnVq6NM1mhy7X23L3XzrjfsnlRK7gRjmvgMWGA8e7FOAY5khTNfQKhTOm2Z4N4y5ShTCa9IXw4mIzwLinclMw+THKl0sV907rSxkXc+RKbXS2InLE6/ZflGyG26PMkL3xAcUpR6FBmyT6A+vo5TCjKVu8HjF7CFdhveMSpDDWl/boUdOIcIwDtczmRi6L5bE+qU3eCdffVFbEgrXZi3eSdPMn47UXepWvF1aUfqRdPbm4txHkSaOogPPzooaMmrIPqmc1t+3oUMmHd8rGpB0H8CBcjV0Y28cYdL6Hva5pfUzz+LHUYDyZ+mKyM4P9r4ZlhGyk5P8bUSce5l87bBlkN/3/t4VdZNFATcNx4SDp93GSDnMDvv9MrzQxb7pa6i1UHHrlookNGIUlEhDAv592ck1ypChhmS1bCVwLUDDg53aH1/HL0fFhKUWgh+j31726pXALqK8DazF6k36b2G1URsCO5AuhzW0unteVQH/A3kq8S5+Y/hurJl5W4i3XhvueCr4IS5w+OmvaNclTif51qVKPXCj01FQ48FeF8ob8morO8ISu6YcFWhQZQu+BQxBYM29iNSb0MzKz6W3RmIRBoOSj3bhqHvdkC4MmTTyRxMRYwQjGeldqEAm/YKExJ5a3Kit+mGF6W4eXIe6s8U55PLs9F4OonIVJp71gb//JxfXeySqNgzIy4nHP511MfKdD6agpmqchTxqdBhM2MxFeoiAJB+kTam3eKWciu0BJGBZ+kJcXGSIiQq1pCgtkDbQeLrs7gXBYULzp/SFlOpX8QxTYW9E18TJRA5G4ovKgX+UWpFqLxmInKWE3mmA2it3+6XvBZ5+Socc3Lfk8mWLoFNtINH5aADEAjIHojEALB28raaqd/9WuTK8Dgau1cc6BB+P0AoeM6vdlZ7zH/plTHAsH200dZxxm0pBZG3B8zKlwxRKxws1NT5cmQVzjbTgkDGjC6BvPlihnZA6kFSiEX3tpncMLp2EnTXtGMUBBztIVEDJMYIHfHyRElI9bTFBsV8AZgNA/9VIwcCfLH1jDTFnV+SWgEeqCWggNQDxvGkA/+W0NyItguQxZaRtCx7u5y0hvIhZjis5ey2f5mJt6PX5UtT/X0GgWBJr9b5Yy549gl/LoJwJZ6BBhU/9paTNX15cQSmwBPg5Ge00wVT9sAwcRUkR7UuJezw2gM4QLG6gi+/EtAWMbkQYk1KZim7QpoC8PFni89iUDYEA/h1PNhEImhiMhUH2TNgYqzC6AYRxux/MXiE8pzV3c+3kNgNsVFJtH65Qre5i2XICi5BIQdT6g8BGRC3pb0e2jiyj7O4l8nmnTO5JetQ30qlGI0O++1NzMHHJkFg2Ip2KU2tBzID680GyIX6CSzhM0fqDE7Z2BDC44zdf9x2FAVX9LiNCS1DzOAYT/nM7ujoIKJfxzbVX3Zq9mtYsZzOb43RBsXfWZNKkUjUTjIY4RAFq1YAMrp5WfDwwOVAe7uRo7TYLsOT7DgRr58/XNQM1rneiKJasZEuDX2sbAb4850cl2xd2ARsEP/XXN8m1fHs6hERrYBZQnLHs1dwlnwQtyF4t0AeVB0UWbNGDoCTq6TJunoAdrqPaFEZM8BFYgC8SAmRl/5K7yjwlBGVPYFLxwNKeiA4UTKEsCTB9qhqOp9u/yf0hfIQ06kv6SU07/ecEwnFRcJ/SUvHXrZon91BbJmG0Rbc32LMRvaYyC3a/YGOYFSOwZn5EBGm5iigdz1hSnGOshd/45n6wFjs9H6f/Rs6LbikFm49SgtibJ5/WpcShikLhPMmC2ll61DXfV5nNg4JFZQ8X2m53JHgS4Vc2WLTVOscjgRFmLNHswAkIrKqICU3rhRaqVXct3Hrb6DeSfe458QoGPF9yG24eq5Pu1ejDld3KAuV6MflGhWoDH5BcEpqEq+GIGIcn7QziwDsatlqZUHf9AVyeId95Uc2Utep6FIPFrrVpBWJghII+neO1nGNLnyiScyk2GbIJj4fwvMaTq2oPsypJBkd7k4ChTxJbGgP4P2FkHtQPDh8X8DL6xzeYyAKbEpnUJWmx9PKhAY7vvD9zEvRr0ioGe7KIZP8aRv02wVFoykehocZi0y6L1NkWq8T70OiPtFbWw6jcf9VxuEWmpbotz7qPcWtAyiM2+VgK9eVxEpk+edjmxyM+HUZwHGZD4oDGZNnaPIPSDUgs5tIeCvYLcYFjT5JZU7KtyyyxSBGRf432kyPVCf0YJMmVUayQoGAqDnpCqSLdXF3Gr6Q+WkDHvj5z7LSpQJNZFl1mjX4sg4/6+iKAcyipnAVcocZQyvRj+tmdlsbvU132YPjxJjn91N4kjmd6J0fd9xiVw1VBUUkNl8kZSdEYgOD39wfk9GwXpYlOBaGdnmd7HMocw1SN5fpj7nJfoZ66fYI4xfPhWkSkDLhPqccS4MCj5s2HZJ+91AQ6p5BVAVDI9jl5Ai880+mBZ62WZMQ5ZicIzjYpMdhaFIPkOvTVBAg8MPehMmDkeY0W8c/5Bcp3U3zDu2Dt9MqZKNY/Rl/pOgO92xfWKeqrWrXTkkage0ki8YiLBZ+f9GHVILIGlSNKAlNUUg6tIxFZlnPDW6A1dcHmD0CnqsAyx0dniQL22HrHbC6xUlSjzqtI0fxqiM3xb0W1SZl24Yyn18ug3J/WALBvw2J0bUkWzKK37k5/aOl9DeToCuTWQUrNlj+PpK21dQQQmse36PFQPXpa7kTIsskcW9kbos/Hqk6EHQJ/i+TTXSmUJwJNOn+eAzKkHc5BqNZEQbzTI5YRPP+i5leO+lf6D8MHqhJJBJHx8W9oOBRrbFhwiIw8M0FaoK8eDEpQt+2aZzBtur8dBM5y21k5AbibvLyfFr1g65Ei+7QR5frk3fi7vHNwZnzD4Njl/koS66Gb+toPnJp/9od9eP/ojReClwphBu8QlI/YRER7aaJ8f3z3H9fYQ9ia7lXxy3mkIzZKh8ynnT5XVNlf6M2Bu3JR36Gf3qUle66DENo0y3kQbGq4/gPKiPrgEQkYjV42zSS2T+k2o41LCk6sa28qbdBqLgAP0Lt+eiE7FQob0xKjsSGaccERqOh2OAT/tdmpJ2QLYzJ51nZQwrqUfcFh3T9shJ+z/WFfwBHnC3W64z4gFGH20Huifohmka07S8EjLObTrg6afXjz/FBzFJbF+7e5J+f43oS2xDn1XsFpNd8TOhy1vi4lR/wQsxT2hzCUhqPODuFWAYcC9VrKxvwkCNoj7g2WE+/hkaurIBPtI2ea48x536wM3CEJ2QSiwFNLcNatUWkZhzAu2iFxPD2bHED+IYKGUPNMFjscV0yY6NNDpMtVsClRhW2M6PzFBIZBEFCiWoxY9F5HtX5bMgwuZhzfEMyuDChmyPnun/Qz+3tJASRVNTIb3zbPZ4cwe02ptyxr+HAcI/uUeJ6I/8RpuQgZzXQ+UM/GOhSnPzn7FZVBlyXoClyuIsjyL1Tr+oJlu1LAHa9rdp/CFDTqOyjEBZtHtdCgp7Vky9DKbFt9ln3ceUIUo4O4BX1Wrm/HgPHerZG1ivZheWG5bHENmNmXqIQ5jBUl3GY5Hail18rMxR4dUsr5QSa/jZL/iSri5GRSL34PK0hQP3VyA9cqXWUBhdXkiCc2ldrMWYl5+pN2W7RyHk11/piIcFx9j0Mthlfqt9JWLaUV2uFGWQNB34TsW+pj9b9Xf69WESvwUk0GTjseIsor89kO0RI/H5AyB2/Bmm0SZtpbLRQarj/VQ5saRk9riPL0FrbwV0OgHzJULLN3nU2oKqqmYvoef+XAVWKGzmaYTRTtf7oMiylPm44DtMLvnlHqeAEWbibowe0vYAuUEmLvqbET24Iy1Ry1/mQvpSNpGGhwod82iq0dNIDFeoEvrkEqHipkeNslifHTU5Aj2gpMq2JK+JlhkZnL/XVsIEp2KoAJoRIJMW9BQw7HN0xn5yGHH2fIGfUGbQu84Bsg2JZaQyLTMk2qMRRVKDeqp2AL6MmTrHaF12wlZqEwRb6lTQTgporgBIorxrpI0E84YowzArE40qMAJUp8g2heP+qkg/IWe/77WUQbQhUU+EHMlwUnR6L07ukyCTsYnZrw/AYQkeOKYC59mSYt9Pvsb4KI/nMFL9Dytbzgo9any9x6ytolKBCKEwB0Y0Gyl6eI81bqe+I6sIHcmvK/L+uOssUYcnGe/lnDWNHXwGKX4ltlfRjHhGuvbbJJwZYtLCRMTSHVDw3Ai+/iRtlIsmh4wP3NnRkaa8bFPoVkAawWlUKWj6IjimqaUKvYukSgcbWNFXf/9fiBjAqXBGarIMTJiwjrHFML0raexSpRYS3QEs4aNEZwoPTXzvv0VoT+8MVMjpxQCMSVV0+noTKRvxhh/A3dzEe3JVxD9uaXLhgRHGaGd8PQkmMdqfug8qF4h2r4+W94Zrsb+WBU4ICzOsbO1yMXI1mX8ko+jAmhb9Xj6nYVBXmgT2ZkCupOfoy0MvWXb21Yn3sTHvmUcssVwr/AbcKS/LzZIdRPTj7uIA50TTr384BxFG7/QtH/9veIsfQvJB/9FLXNCBrJbXj3kDF6vtBFc97xQrpoTaD/Lm24YDvNmuKzGC0iD4KI5fxEgjnrSiXgB4My+GBollJV51yYrrgB/x35/9Dfe1G1E4ARLbqBSEbrgs8+czUD5fXgYcIqBlSP9Ru3C/lmx25XarNngJGBl0zjLJ2esKZkPMbF5ptMYVB6UFRD7QxgtJ3MEPNFdiIyvqYvzY7WjNCLrmm2rnwS1+XkGVPKCkZGvrgu7fzhXPYRRAH7VaOBBAe75IkkV7xs5vRLZyTsuvQMCO3KpKpF6RqIsYvymHJfEY0kN1rPrtQ1eNqOQQzGNX2qb4kT2IafzVMYw7Jq+v3TtVon5qYdJjdPC9nNse5OQvDqR39xe2AzytwGbNLTGOFiEog8CR3xB598WuEIO+OwuY7TvFxjZHg0QoZvPW4KGjf8GA5NuLC6R7SiRuWeVNe8DbDc4LdHkwYHiWtQPB0PVLaz8350U8Ij/EtFlRMM/GOAmwMSKdumbf/ko2Epz5pqADrKEFmLlVG18QNmQ1fqj1RtYaiaMMUxDKpAycaUj4Q4qu25gf45SNbydqXUFeaHVqXL1eat2K84d2xOxZk34HksijNmCrRgMBtcusoKiC1dbPvUuGYd71UhL+e25oK70sJVGtW/tAapmjPU3u4cetw5TbfXyKp7A/9qJx9mf7BoRN56xNQdlD02lA1l2AfRCCX+Bbye+3JwmDYHsU/8CApZeqQPKByX65D9DytCYGsARGmSGcUw3XSL5k4PcwYTvVjduExL3inIbpzA2yFnaldIHYxTAwCFUr+R1pyO9uysDhLzyzrnvqvehsU3HzHJ4mZ/mW8p783dEJa/ckAn1yYI29PfHJ5uFIUpMa1+6/sxLSyyILVO7ybsrbF1QsCIsT0BoAaEss0QFaYEJiWfVBpYN41gzHWkFRyHjeT4xv9HUCvycGfGxPWbFoJIzqsl/Wyv2SdbtIr0iajS2RixwftbC2c6rXQfEPuo+mon/H+2wAG3QM9mr+MTHaaYchuyKnhDOz0w04gVcbvADG7OgTsUS3pozc/Avm78wtBcAchOcdLbR+y1M47tiz+cIs5dXZ6tsk7q74JS0iTjS7QrCUWLzdVUblYx6sCubd34zoe7+C53sCL/QA6EpqVakN8RcfB4bhZCiLidU8cTo929NODmE6V/xR5yqgtvQAKLaF98tyfNNbIwXr76ee9B/JoAOI0hCg7w/RXA3nVp8XgvvqRSSIHRXs/MWHyj/Oxt9cGLH9fEFOAiWwW5GtQv8TIXS7rYqRgCG9IS7oIgqYpIaYtrEdkMYzv3zu0TXUWCwRc+igJSpL7koqnVi4OPx9VW/YGSTFJ5kqfpEZ12SZNhwdICabSazvLhgptNfS5Th1CmpSvPXLyX7K8hkwl6eFyrEPHiz3Y8iiaps8FXLoU5eXHlRsI0Z5XB84ZVyK+Sjd7AfVGGWbjsvOfaAS+lnfu9XOF96qLA8R7SaiQu26l9GghZ5PHy5WB6clnBQ85sU5zlUDRxLhkMAriTdUiZlk1y9I+4IsRndG7XULQKeuoYU/OBjYm26SVo3I7+X5w8TZrWnO10bKzTtWzbaf6lS3X2rlXDgiJVp1e4eouEt35ISFvbo6N6TR94IWOk2WL8Htp69uxdOMTFFlMm103q3X3wLnkev9LhLf+/yQWGax1gRVtvcZDU0fOIijlKzaLg7BwAJ2cGM/48SRJhpNf3mPidNu9Gm355vAh4/lt91sr7HOW9G3XoU0UEqAipXilbdm75SUa6MlD41gRR0RllyLtD83HHRKzY73Drm7In/2noAGm5vmaqQZZOZDOs4RUmjeT2MG/q8f7VvBPJEGFvC1WR4vSm54Nl4/lDRFP8DY9enJZE4PUptsOZNl5bPmEf58wDcSljahmEuZg9hl81bQcUnbxL1cIQsujf13kv3PXXkLLuqwLl+DsrSZop3mNnmYA5uheALnqUUbgBPpQCdeYC/DGwBmPbTSzAtgZlElPm8gZC1eZJ79Ln23AfJFYGE+NbeEYS8du+lVLUQV/ud8NPu0dNMc7yMZIXKo6KAudy8Fwao/UqNSHveMLwYqUPrYHbCwgqLxe7TIDLeeWJV356d8UpHx1H7Kv83VmdaD8TISNJPy8+IyUFdQAoO4d8f671PFOY4zNqh5v8RZrv6Rv/BaHk1Rz5nc+Bvo4dabfVoEwhJEsdGAfN42w7NOf6VLCu4H+y4qA2GWGPbIWn/vnHrBzdBKnEtT2ZnZ/ojDXLGSf3jL2Ry6QAGizaro8rEk6jppq/0j7Ywc/AC2rf7vWZn5NTtSU9FZ5oqMZYsmSo+zcgGlONDAUc4Rdx2qqYYsZvC8GYehtT05oy2E1omnyAV/Q8Zy5hhA2f3Gt+6+OSxHGkGWMR0dtDiAg9yFOVpBIQQmE5icjTgo9kJCp+pYS9Zp82fyCke7iJT2pHR2AgAOFI31Q95cXBd9dyhTb4eP+zPS2m1gxk4WjPuCDrBFCyS/U78JB4MiQNsmYUDMsCycFbOW2U5PAHaH+HGPrJ1vY5RM+huLeM3C6Inxtj8zmBOd3WWukONtQXYqbXQ0BGvHINw+y2tJMlh0Zy98uy4GYFnXW3SiM6RC0EERcwRHKBAHFIQjbPEhhX1jf6Zf53bC/FikfC0Bl2RrX6WdAhRqDR2haDOEg3ufaBEGfJW5HpV0Q9Ffqv3GpQ2q79/CCJDu8OwJVZC/EFLhPpXNW2Bk/RhIfBKLFdPK4IWpi4IVhzPjVExdME7pJYSGvYbJQztHf0C1SfHkQc48fytSXDKNM3/hNC/PpqdvAUsWtP5YS1RtGGoJbrLhjEQ6XSR4lVokzjITAJjXZCvtZghfnqArxok48PcLrESwdWGN2mqV6tRfu8rxtB56Sa6Fe+cBTtroutnirrk8qaAmwDoSpJORJkYO/vD/Kh9EIDVgj6Ss4J/a+cqbPPMzUh5D/DHSXzvYjrxFlKyGXx7uFftC+M3olkbdlT3xpdC4C8dtcGf4ZNCm1/CL/P0WAdIA2Sx0dSxCgdy2ras5klEAJKk+yNWy5EsfpaZF62ZcrtD3T6F616SfxbN40EkFXNiFi4de3fW59aqEL9C5s39X8syc3w5YvAcd5FG8Hx4QpZP9k4DdYQDYpRlhMmC6DkHuU+ariWfvdKVIs92+fn6EDeBpt+fhNL/KNcpsfQYggx37bKbOYg3VCnlAyL4ac3f7u6Csz2gGnnjGBtM3MAC6jXmGKgVK6TrYXuZTT9JQxNImUa6yu3eD4GN2FEx8cod9iCmP0wHUKFNhxGUmn0b6cjHeUTEOThxQLLqVpZEmG1yfXzLCU092MglXabc8nwoFUie1Th7izgY2BMUyrlp3G4EjXd43tQhiHBD6mbnY5heK9Cbg2D1TZPBBUwlMj+60J0VtBgl0RX1QzAtUAckrtqxQ9VtnTN0BX6DADEl1IjCHPLUBRamhJAeGCAR4DoFHrVbTtJ3v6RZ/XOUYpgIul9+Qt3nF5nQkTwHnzNyQwJ86BHLQnZihloHlE+ueV7eVnPCGUtVJjI/vncMeVBib9uVxSWO5yV5F2YgR/sDM4rE13QR1wp59NMpSYn/d6Sebrn9Rf1SeBTr3MBisa1Byl3ycVxwxV6s4zkK7juEiWdFazUTsKHkTuvpamyTMeidQjGqzOebdwHyvSKyn6FNesJYfXOSAgBss9sqYNc4jzUZpY8sIlHPpBzPQu5mfTOKSRSHjM4JT2Aa68nkFB/Jgr54NNNl7AvFrqAxk/eJ4bHsNImMT+jKmWOCWuCQa91xOqXdpHH8EJcQYwlFJWNHt9KmYk6wEi58TJFSD+TRHOF8BUGNReU9wbQVcmF18ELgQacAxxKsmsRrs/CJz6WFBJrlhatiLTok1QlTo32oj2Y8muvvkrg30X4yaS/H5ebIvKksXqHnOMxaptulJm+QmjoF/vHUVohxCoffjjQ9d4B1b6SkaDle2+hEBlSNpOX0JTyhRet+Qh0JzjGXY9djj9fY8jg3Qpu7pXAgP0XV6Dyo17rgyeJCKL+BLzgyJjzbXqQgwkqlQqqnta2uA8xBD0pQ3+1oH0BUyd4afhuewg6mBoU6JEjuIr9rtBZ5MtVmAzAjd1pfBt/hXq69ueYwL+0ZYEsWbqkX4p7tfiGED/ESdA4yL9bAGudA4Pp/jfZcGqMaR22NK8Tc4k0/SRuMOam+2VBBHT3lf8dcWyRpez16RFhMgcdQHVqhrRnsB5UfrRec4Rx/+82ZZ+4Wl2tFUcu10Bh+IbbSxlCf7MqpYwdf5bfqFROWuuYjDtnlgjwj9SCe5+lh69xlHy51vUVGYsfGz5RMgVRg8NqAI9rbHKZlvwjxav6R4O3p1/mB2zC3pD8mi8L5Jk1dAfrRPGfZihA7UnpOsZnFo8oJEdkRzPbwJx5QB9gSKpLbb1lthHwmkEsraHVH/kPgUTsY0CBa8Gjefw6mXwxDYcKEqK4I3wOZeWGiFuXWJj1IVxH6916/jpVZ1ADi6LuPTvydS2+LfklDTRoqpkAQYTs6pzEQIuD/DjvcGMeaPFV1I3MrDb6s6CYWEQSTDwD08OE2M9LMSaYUxW8DOGUago7Z+EQs8C+f/d1r8sa23/HstSyhqvA5HRswcpvZUJpwdkIkNeZXOr3/OYSOJtklGtdPjsV/G59SZYeFflAvDBNLABU4/z57m1NZ5vJZK2pcrMJEe8CX7p8ENK+7BKypOML9x5S/j7k/cE6QfU8pdw9qaBsyq1akuIPQEiq+Cr28CZN9BcMhAPRvlam/L+uHo6KnudM/Zv49ObeGl4I7fMTkNTAWjrc8kUnBbbGUCIK+mobHIRH4rF49RjXQ7KJYeDN1WYuasvwHkvIsMNmHwgY40jz5cRuX0C2Mb1vflDETrAHWwtRnE78uEiWlMNrI3sqJS1DtMwqDtvHvXup2Qo8Qy1DDXWWMHLlbHED1/eDBfAin8O3qrWTqHJxgHZtw7X/KOUC9HzgMSPdKMADefMpgBHUl9aCop1GfmXh0WnZRlbpSTT5iIOSpR9BaEdNJZt/BaYd0DDF6pPrCI5vFVrMn1SDFeXlKx+OWOa/ig5XUEwbdzLwfdp17oBAUKHUH+nli/VAdKGDpfwdOhf7fzUw2DWMfGBFaugJWdGTukOskmT+5cxCt1nRsRq0UYVR5hy+Tt04WRlAnt4TvE4zzdfda9zn893Vz0HfQL0G0y0tfXrAcUqMVGVrlkG9xnGkKdBklt74Pc9dI5/aXbpdmtNTJwEFmGzTvAkjLpA452AnXL9da77HbmCIRPdueEkkia6i7tpQoMjESwR5OufRyCKgLCNMoxkAg7wzzHkAscmOHOF9zpCeYcC4dTtV9XZu+vaCsXp322+AcodQnkSFYS8ScqZsFUVKwjHUxAUB8XvXS2/nLikVSmqvn9rILcEE6Wy4DpL2duSV4I867FeLF5wpDr/e9/bfHYU5M6VwfaBWBcHtl6wDOZHVt+1GlwwcFJBno3APJnx/7YzX6KWLL9hVhQ4iz+qLJj79V94PAS0mdi1xaXWydkUT//ZeugfdGLseIfk8Ap1mW4u7pijiR/7aHMwBS39Ez/n/RvSEDk6Ng6nxBmyq6L9XhONFcZfIfhgwvPh2AA45zXLYHorE/OyQV4r6IKsiRNd+2OOIz8bVcMBqVmo5ErbuWXWwYcBM/M7y7FNe2HrLkVb99Meyvyi5eVoPmhnBDDCsouM2gRoXy+KQMG4pllkTmnaGAwPcC2lXBK0XiMfsZYKjdPcigcZOXAQJQVXDQTtrPe+LpoqeAxElLZBPIgdF9gFPzK4X+kaSQcqCR/in7SOb/3Q22tES5NMeix7BsHF2hQximIcQhMUgr8NSALlfWRnawavCchwxTbmy+6aXp0iHJLZfiw83IZpqPn2PLUH5njxz7801PiPoN5b2iy5qtLcsTUMjwfhDy6yD4rPMZr5E7apCuwpCg9OrxJoELVaDsHMETdtB+M70jqFdVNQxu9KFVb8OW484PzurRm5Vd4TUO6ZiAavXuIOaS+ddmIHHFYYcHRePjwYIeKHVQki680IWbkOBPkKFLDdckv/+EMAapGpwnR+ZYm+QDomF5rdH0H17w/5hx1MPzy3nnjIh8eYpkYdiOtYJoM71SAwsiNhGXhOJQBvW07aXGj3Utl7vgOOvdSA/1rTQKqPROR+T3gE+ufBpecycMiE7u/d1ifI4PSoMqc+QizXf4aNnHRlJhgqNE2iHoxL5HaBOIjd6K9TWNKbmRQu/atu/Z/J5gCTWQGzx3qsrbCi+JXHa/HLqwMTFLYEN/DX6TUaLILEzmnx5M8sI1kbg6h5l++dzZ+H+P8z/kSw0SqTpANYeXO07AW8FqSm+RNMPECKl5IvG4CRrIC73iDnAv1LycmojxaApyWFsg98FP4h/suJt1W7okaduWxXCqyEG39dVzEmsDGlKfGGJTVsRHzKiqm0X8SOm24MERtZwv1M6kWE7sImr7isWSs1wftDYTwmVrWTllqZVEoXyPLapC7taSycDZMbG3TH/lTW4qaju0Vgr6qgym5AuZa5KI6RmHKjZy1rZlyWc7f/IB50UgNWZZzjrtkOOM+/a5MNtt0nTs4xnYSBUpZM9IilM37rvnCDli4A+l5cT7YyTTeXuXkP/btsB5QnjJ6da8QHnNCph8fbpaAbMVd6EZswMcYITo1YGtnGvlDpbsDZPbkupF2nM9F0aJ6AtUm2fvsdOp6UjCLjZPzJWWa6SOHaYHmTUY18YJbrapuNWAl+r7VnoSjaW9AKnFWfTL0DZCyLYXhw0DxaKZTPt7WE+yHX7Y5uaknf5xuKbDCN3fQGVSn+uSBL7/mJmsP1FmKcYGgXlSjD470INwIt4bepM/3vK659jyFgsMYWPDpT8GFerxU3MIrrN8GarKHNl4GnLiGZbXXpILn7xdTQiFF8EyHthKjJUnL6LK7OCtAJamdSLKFxa9tJTXZwAtTGP/gcqS2O+OBGZkQ+WaRWIr2G27Hgzb0oV/Wyi/xiLm/NDgBziitYVbtv67u3ateQNhnusiYg79lkLbU4NQEvOPUYNii/Qzr/rK/b5uZu9cGjXm/fJXUuKaEw4Lh/WM4Of0WxI0M/9Q1jb1B31EUlWLhEZOG6wJGgBmUeKuXF3onWaZla4ae2vowL96abJ98isvbvW6OPVzKDTyCRCnqKD/Qto0MvCp/7xTl9uTvcSRTUqwcSgG94SD9U+4LTJbcfd+1GEvT761J8L8+WvNgdi5EtoJurW2Qf2KogVNectzrHxAIol4f+izw+dRv0zQM2V6T/SW4tC6Gfp9zrZpm1InMEtxw0Jg9ywX81El6r+j8V10B7ITrE+UnZtWHdVtV2HITvtMmAoHNgwdlc1NyogzKIvh48yVnxUpOVedvUBxE3MIrwoFNTB4A1r7PPqzcLLzT+zssrMkIYUl9Nq9JJefVUNzMirGf7Cl4HRQXnCkrA/pvO/eW3gt7Vto1MjKCrFfBPs2hnYrjQ+bx8bOj+bA/+Tt9fgwHBnjpJHyyyWubKz78QdXabIMlnsr+SFcDeMJxFmzkrnVawEiF5+d8Bm/Ru7V1vndnGQYI0Sl50K3/tJQL2cQq3r/qQqRh/t6ZIy6/AZO0AhcFiIc7caQtF6NDO2D6Jz9E/7DlmIovF9GhWGLPWBtuplqb805L0n/MyUnLjAL7/aOuPTWrG3t97kQT6+6/ughWe7hnX9ubi2q5oZotqUWp1RwXppnwLhtLyifbQ90pQWXWvJrSXUiI9zdFjJKgE7heQQM9EpvGEpRrgw/jXkIsv5+7++ngWTucQbEvTPn2wdJ08Cj2If8aXzm789ZCMhgi/WlsVRzw5IIRxhUXEqn21+xtatCHIQjIXI5ubdDDaE58JDkBGxJyKwIQabfgSkhVcP62PvUpDOE2cwoSAfQ1HucFZDcnW7BtrmMmOklmVtu0ToCwy3SCczVXsRHLHE+gbcxMxRdaTceP3aCgQ3zUS/7J6OWBF5iFZmPNWp00fYSbCvkcxqfSQIo4cTEelspD6NnV1x8ZFe452dJd7aItTWUrcBB8qpjGBbBCGX4xJN04kmbNps/QHvhkn446sCQxPn2LIZAViJdMncHSRBTkR9NE/GDa9bi9Bext7JQtoLIUROdeMbhVJTvXn+gg77rdFq9UuJuo+dvnLVNALFSCsjMAd1sIOEzAdmHTy/V0FPkjnqt7hmZmw63k2MJQOx+Pr0CrzxQe/EeRY+nJ77ITYC1LI9wDzAU5WO96gOhjdXbRyjuTJw09awBIM2ofkFMBHi/DHAcWMqvFf60ZToDIAkDiYTl2uZ3/46IQzh7ovvE/98IU/ZgWXkk559R06jYZoaI+bM7/WcaVTScTMF83FRYflis6ex/tdeVYDEkYWi3AwqxqjrfpxuCR3Gp2nbgePdNbzWxXTgOstyZ9BzetDbOAKUi3UGgFItIt8j7z7rj2g7Mbl11goM9bPZIbA8jup4hR4ZXGxXHKuVg8wlfEWTGSeprt93qPmojUNh7vU8yHv4uZuML6mtfH+/xY/2VDhYhV6bF3kId/4oEZmdtL33FpNcwtaorHAqEy59ZRqDOH/MF3LHnHHB2sTwETnuEhHe81iGHD8ugkMx6RcJCTb/ZWCYOUQVLQPTzJBpYm1fscE0iQDCjlg2WZVWjQ2zO/XHRMKQEv7JOFoZx8/UMZuges2umvnHfuxRt6t3VAuZfXZppo8Lz0bt2A08YaO80VJyRYgciX3483PvTZ4ysfKH3BjvPtQf9Lh6pw6OeaRE0rTVb4bBP7o34QMlSpuvpBYT8GWdJetx+nKSbr7VuPGQixrYzWxFKVQha2xXfe7UwtHUE8J9mUlQRHP620v8/7podVuXrKjiXlIHF4uETK/YQOPzc52ZviH/AP8b0m3HznYqZ1tMxNudoeLQ9JdpDtkagzaZKlAz5GWgyqMDWF2+SFcUt5XREit/t9zSkFVV1tlh5QIQvceWjpwDqUUaC0x+ox9HBHVevetbY+jw1HGXo4aDc5U3IqZ+6HjyOm6qthlDIdsSDRo5ESwEiUAis98U+98b79/KfLhjgtNrZRvd6gVzIQRf14FuBwH+JxGqySKlAuRCfvQI9zoO2fXFzv33siO06IPErssbx5zBg5pIFG6ObHkkd+7364EwLVb3vtpvwBWMKsX5F7DW8p2vjhmDbhgf/zWiMP5xved9rZzd/G57KU5NPkx4LZftWukbQLPQsludUGwIXaKMPkqbyn7oUViGRYB7OaCtEQ+iTv+aHvJIK7bL+dyzrhu0FGDV8Qceas6SRP/fwCFwdD8JI41KJpF+ZKYBX6pJ263bTZH0A6jD1lEZEundW2v5Jw8zjwGCfooP5FZ4TUgWYXnGjaKyH5BA/S0V8nsrR6I5tSxhd/D2MhzbpiVlV+SIrtRy3iampEeow5XhDNUZG3Yyy54KMTgVKKdDlf8P+4UwJIlaRFAa1kf5Fu0RXfpOn8JlPHVGqDb4LqWjt5UkFtE3ualkRHlp6KSgC8spJJV0IUtr5h+/7Ha8F6CRyi4+6e7cfWtSTJiFwEid+Ftk2zE5FOAAeC8ncpr1sM1wd1C4t9uPaT/z0rStfdbPgLeSzsNiFE1sy6pmgcN6WfCMwcERsI2i53oQc1CtBSyiExneXaBkuBshWhGd1AJOz1KwddvqQHyPEqvAX8eG6yX2NQDai+bGO9CgfmBOFaLATqmXp0hhlXqq61mCC4gJs3ZhWnT3AT+hoDtZ1b0PXq+xX87gK3ImjcAvjpTPac/nUy5BLRSni+uYP4GQxnX0vswrDvTQnLCAvAdwypecCBoIgZIINzV7oIZX2+rDMRBOkB+nUcAG1W6OKGlxLO5MLWlFzkgflAlwRRK56+Fc3wkTT1OdaRUw1l9sMM63o4o6Y3BisXhkSHkJ+pIIdCzuLwts3VFPMIhE7YrHkXSafbcXQsCHL4DKpcDbbkDsDgMIH2UyfWDVD7w31US5IhZkGo2voZiLHj9Gfr4iwyzsg5UbsDG+/CONUeVj/5vKDiYRRCzS/VICm/9G/KIZc3gANP0PXPHl0qpLtnn58XcJVUA+C0kqOLMYU8ictvjnfR6j4FDldyDs7s6WBZbfn6Bk0R5WbSZl3jgx1dWmRdEd9KdW9KR/CXp1Ob8OQcLX6hcHMajmk6yYkUlsudbBJDP86SIoUBmgqmU22TYIdSgCgVW9EVKxM3zg+owLWEsIpWC6yL0CkG71hv5iakp833zStxur3Sus46MR79tL2L0dY0CSsAtXkaxW4jeUhjXWcxbcd9U/m60JOKIRtcEbxrpYm4tndRwSWZQrvbG/yNDOLOuxoC820/LPGRIOVlLCJdHyzRHuGF4Wg7DBx4RzZ+8Ah25+cJo841XXxb1mNYMUqkYuzVPcFZQmitUYAEzD2crNMx2hZdTBYWi+2O02xbK9xLslT6SPI5xuSLXSFA7fdrOefcsrKg4mnD404pfHiCqBzPqRJGFW9wEVPJFWCYontZWiQm//g8qJVzhkPl1n+p/Jr1TMUqvL4M/4IdrNgmmYtZBUi5CxV/SQMdtl6WLBpWuj8Q4zzFkKypTUmSoQHjMTdmGsAwaJJiQgM3ufLW05fVAwDTn5oaXL0E8yMwpzKqV7hD0H1bKTnsvsSbdtL9Yz94MjSLYqWysz85BogqQDDgsRXWH28QfLd7QI8xdtLXxuGrrob+jNC0DUPtgKOoMQpQRPguvAu5XKy39aEweYFi2dmWznN7lnlEQDUXAl/YIvy6IfBB2+dvkYmnPFwaUjL+crm8/4ESQFQxY+mc6509bdv7fJtWae6azgkEWen22DtpUZbAAxyo7U9nmGFzZEvB1EbqXg58h6O+fq11uqdntzZJMYqsnpE/sZOVQAT1n+/k8vwKvSIOFCo79uftGG4JR8DM9exHBEqThFtHkYET0gGSSVedzjDGqQBghYv0USQMxO2+OVYjE8TSH5EiUTxDj1Cas6Eopv+qQt5Cbq4rZOua9vMaIDg8g8iJMdnldZIsU4p60WOrMKi9099/juDYelxIJ+Vvz/UmltAufvu/ubaNzble4i4RueY+fnyMcp2+0oShpH5crQYVHq2loIoxLWc08+2kyanO7NMv6s0WDRMrpgLf7GGauP0XtEfJnTuXypjAvOelZyP2NycwFu02Ha7ta7Oah2AXiiN7NOii8+phrb54vwWFscbAkYqh8mdMlf1j0jL9c9BNLfe+BA+mFOVHfSlARxp55AbBWvDZw6XhHO1lEmgQIe1IWM/iRZXsJTkCjS5TjvYPZfGyrsUHV1As4HqpiUp2VE0xWc8vMWYtmX2mQXh8+iqPILv6wwABc6tQIwJ5bEcZjHcvBECTfSuE8217fOr8iHLt+Q66KXPENfpwMZFoEPya+914Cx7Pl/0RLnPzK6cN51lLzYNaXOHvKrczJqRRcYGCh7ADWsSe43P5LlERmp4YPEGfKAkUxI/hm89VD6lT/AZWwaxXgL8ck+tEKy2n5YLTbavHoo0AnCjT2rnxqC1vadSJzxh288iy7PalLKGk9Ep7/1m2Nz6riQbUqWHp/z7hT0IV/8I/gYkXX7lh4I3/vfI5yj4Q1MjBzWkex+P54v4Iv2QCkIuKCaYSmOZNwPVfEQk/dOEQ3sQL4oosSehy13V1ZlxVQgqNDUoa7bgxFsrmz0xv2Rhs4NlaXT1P6nG5bZ1MhBozs1ZPxU9kWb19cy8m5WI11ZXORrNm8+khc7zpr0Ui0RdE/7VyNHzFuJomS2Mi57WMXYTBXnrhJULG/Z7bDxILZkmEYglChuVMElPIDquvzLs6mUMUvMdvefoOkGi2pIuL/Cx3y35HeiDP2qRJMcs7HGQH5tXqSaKYczhOTufKmlFOWcmd1x240dO8ukwi+cY1FJEf2dkkl3+w57IgEP83g3IL6Ona+YnRKZgRHTeDiYn4e3OlP2/k+By6mDmy5qbxJyP2Vdk2VwRpm+BjA3vUDnL67H6kzGi/EsXbBLD6GDmu7m34BoSwyn7ag9NHCkX2yv97wdbrVpf+n5neiUXP+l4GYRB8pxYM5gAsp0t+hCBs9LSNSM3dK2I7ajsXnJge3XR9U6ijaFeTusBOq8IZrVtzfpeuYy/ck3Z/lHtM8NBahD9d0f2UdMVwi4Vtwr+gUzGhtdLf3nU2CWPde/rTfO50w2U3gdpMDMEm7Cq21s3itj7Ls4Pw1XhQhJfUqVUP5lL4psjUPfSf84xcdiIk5HNt1F3tDME0hfcaQFDxOTvYY/qRamUdImR3yoHJ7xXyi/aT/RjFPOyt4KPpaEbpT6PU3z8Mc+MSRaZY7D7mbEJfMlX+RW1VIwXdSMIXDS1D60lwJQVOdbKEQeq8D41p2R9hFzi6GDV8Fn+l9tRpaODfvTWRKkNqRXkIG7nsv2qH292a3eotkjXBaWMhyvEwX2/OBgTcqJBrENpzsqhUVjxSkH68qJDhzYF3idWs0snEjSkMB5ndsy7tqv3XwqYLpDEDhKTeAWApRfMBM2kFXeIjjUc1g+X7Ys5c6qVC2IJnTgmMkj3330xfySxW5q3CVb6nxrblut/YyxviwhENuIMih1VDwB3MpmY41sbJRH3zuuy4i32XSYGCTBJhCsdkif2h3AKf1ZqStTXbZWE+hSG/is7Zw4xqeaHHek+QxChIEAnraYS12+plUvbXGymKxpMiGPgUBKFKi2HfQ7PPFc9+I5ZoAySwGC1CVshn15UAsjCzMdzB6gj84IOQgI4XB4oiB/NgEw5NjB46MpO9u3jPRKtotnV+UgrFW9aTxRY//mEXbjv75WNLgM2nVEdAVC0FGPR6/3HgYtDZ2hpYgNE6rNzwcUYjmIaoCZwUyXl9kFo532YbOFEzrftEhQhmvjreZ79uXHJC6G3O+IBQbbtgyx8JJYrgKl0cb+eBszmFW5FCOnAxwyvWlX8vdNHQI1cWWdJK1NLsYBsCaKC4JgjTkHG71OlWpMOVKGybaUf0j3T8jiB9HX2oe0HN5w/4cBohHtDpb/Wnl2R9OMxqsroN3ntAvtUDqrUDYauJwYHEXtLtxe4mkir9cPiDQYQhdstghmgfUTKfi7dMFM5tdvagt2km0bZdw87ysZUPAzeZE1rWqajlPWfdYSvg7CKKZ4WhhLeK86OtXjLvsOmYFMhuZrYC02rL/dMHej0lIk6dUJZ2+nZ8dnx+PVOdLHMY6DpY1Er3djtzbZ3xdyiCG8EJhUjTH5MDTcCVF60dcVl6rdeZZGc+qUNEkuWmH90T+MfM4jo5oOakRFJdQjAHuq9y91dKngCritf9OIH+nNg+GJJ0KXULybRK3wQSe+QH1+CIUUyPc6MfeA1L/BMZufxytUWP5r5Z0aH9pWABeLGpRwMRAme7+sbM2OUottLWWay5446Y43qaBXbMHoLAHJ2cHqSz8oNxmZjaavcHWsMAxowydTtC1ikCZoZr50PAZkwlamMfQ6mWpLpWteOcaTeZufEnyOQMQU4nqNb9yWQ7RkXaSDiQwGknzSkXL6UMo6Frujhc1hnWQytus2UdvW+fjovBStrVn7UpkGhh9x4Ywx7dstWPJ2g3KQ/LcXe+DMbnnzMlKgc/IBg4AZGSi/qqFtttvpscZ3JTSt3h3BjNuGaoNQ8OtJvVE3jdGu172AcwjtncriJIAi4Jc0k7cPxKRsEqc1vHqh0TIX54h0eIbFnToGDdXVvf9mkg5gVSy+J8RTzFQqPKta1CAfYdWXEz2ACeRWDR0ottJPghMq/X4HJH31i6isytBT4ArdZcWLHwdeBtumpFFSPQJOouiTJo1MlwaP03WzfBXhBrT6S8vgowaYmdJdbi9zGmCjt/YI+dmqI2LT+Lv9yMUtMa6uWzB50oaGwriQ4gzRtL1yOjcueYnSwPcRNrTUi4/S7KaFY3FVuCLtAYwiOBjn95dVx